/*---------------------------------------------------------------------------*\
  =========                 |
  \\      /  F ield         | OpenFOAM: The Open Source CFD Toolbox
   \\    /   O peration     | Website:  https://openfoam.org
    \\  /    A nd           | Version:  10
     \\/     M anipulation  |
\*---------------------------------------------------------------------------*/
Build  : 10-c4cf895ad8fa
Exec   : blockMesh
Date   : Aug 05 2025
Time   : 10:39:58
Host   : "Erazer"
PID    : 36111
I/O    : uncollated
Case   : /home/sahin/OpenFOAM/sahin-10/run/miniTest
nProcs : 1
sigFpe : Enabling floating point exception trapping (FOAM_SIGFPE).
fileModificationChecking : Monitoring run-time modified files using timeStampMaster (fileModificationSkew 10)
allowSystemOperations : Allowing user-supplied system call operations

// * * * * * * * * * * * * * * * * * * * * * * * * * * * * * * * * * * * * * //
Create time

Reading "blockMeshDict"

Creating block mesh from
    "system/blockMeshDict"
Creating block edges
No non-planar block faces defined
Creating topology blocks
Creating topology patches

Creating block mesh topology

Check topology

	Basic statistics
		Number of internal faces : 0
		Number of boundary faces : 6
		Number of defined boundary faces : 6
		Number of undefined boundary faces : 0
	Checking patch -> block consistency

Creating block offsets
Creating merge list .

Creating polyMesh from blockMesh
Creating patches
Creating cells
Creating points with scale 1
    Block 0 cell size :
        i : 0.2 .. 0.2
        j : 0.2 .. 0.2
        k : 1

Writing polyMesh
----------------
Mesh Information
----------------
  boundingBox: (0 0 0) (1 1 1)
  nPoints: 72
  nCells: 25
  nFaces: 110
  nInternalFaces: 40
----------------
Patches
----------------
  patch 0 (start: 40 size: 5) name: top
  patch 1 (start: 45 size: 5) name: left
  patch 2 (start: 50 size: 5) name: right
  patch 3 (start: 55 size: 5) name: bottom
  patch 4 (start: 60 size: 25) name: front
  patch 5 (start: 85 size: 25) name: back

End

