/*---------------------------------------------------------------------------*\
  =========                 |
  \\      /  F ield         | OpenFOAM: The Open Source CFD Toolbox
   \\    /   O peration     | Website:  https://openfoam.org
    \\  /    A nd           | Version:  10
     \\/     M anipulation  |
\*---------------------------------------------------------------------------*/
Build  : 10-c4cf895ad8fa
Exec   : checkMesh
Date   : Aug 05 2025
Time   : 10:39:58
Host   : "Erazer"
PID    : 36118
I/O    : uncollated
Case   : /home/sahin/OpenFOAM/sahin-10/run/miniTest
nProcs : 1
sigFpe : Enabling floating point exception trapping (FOAM_SIGFPE).
fileModificationChecking : Monitoring run-time modified files using timeStampMaster (fileModificationSkew 10)
allowSystemOperations : Allowing user-supplied system call operations

// * * * * * * * * * * * * * * * * * * * * * * * * * * * * * * * * * * * * * //
Create time

Create polyMesh for time = 0

Time = 0s

Mesh stats
    points:           72
    internal points:  0
    faces:            110
    internal faces:   40
    cells:            25
    faces per cell:   6
    boundary patches: 6
    point zones:      0
    face zones:       0
    cell zones:       0

Overall number of cells of each type:
    hexahedra:     25
    prisms:        0
    wedges:        0
    pyramids:      0
    tet wedges:    0
    tetrahedra:    0
    polyhedra:     0

Checking topology...
    Boundary definition OK.
    Cell to face addressing OK.
    Point usage OK.
    Upper triangular ordering OK.
    Face vertices OK.
    Number of regions: 1 (OK).

Checking patch topology for multiply connected surfaces...
    Patch               Faces    Points   Surface topology                  
    top                 5        12       ok (non-closed singly connected)  
    left                5        12       ok (non-closed singly connected)  
    right               5        12       ok (non-closed singly connected)  
    bottom              5        12       ok (non-closed singly connected)  
    front               25       36       ok (non-closed singly connected)  
    back                25       36       ok (non-closed singly connected)  

Checking geometry...
    Overall domain bounding box (0 0 0) (1 1 1)
    Mesh has 2 geometric (non-empty/wedge) directions (1 1 0)
    Mesh has 2 solution (non-empty) directions (1 1 0)
    All edges aligned with or perpendicular to non-empty directions.
    Boundary openness (-1.85037e-17 1.85037e-17 -3.46945e-18) OK.
    Max cell openness = 8.67362e-17 OK.
    Max aspect ratio = 1 OK.
    Minimum face area = 0.04. Maximum face area = 0.2.  Face area magnitudes OK.
    Min volume = 0.04. Max volume = 0.04.  Total volume = 1.  Cell volumes OK.
    Mesh non-orthogonality Max: 0 average: 0
    Non-orthogonality check OK.
    Face pyramids OK.
    Max skewness = 1.24127e-15 OK.
    Coupled point location match (average 0) OK.

Mesh OK.

End

