/*---------------------------------------------------------------------------*\
  =========                 |
  \\      /  F ield         | OpenFOAM: The Open Source CFD Toolbox
   \\    /   O peration     | Website:  https://openfoam.org
    \\  /    A nd           | Version:  10
     \\/     M anipulation  |
\*---------------------------------------------------------------------------*/
Build  : 10-c4cf895ad8fa
Exec   : createPatch -overwrite
Date   : Aug 06 2025
Time   : 10:29:12
Host   : "Erazer"
PID    : 6281
I/O    : uncollated
Case   : /home/sahin/OpenFOAM/sahin-10/run/thermalTest
nProcs : 1
sigFpe : Enabling floating point exception trapping (FOAM_SIGFPE).
fileModificationChecking : Monitoring run-time modified files using timeStampMaster (fileModificationSkew 10)
allowSystemOperations : Allowing user-supplied system call operations

// * * * * * * * * * * * * * * * * * * * * * * * * * * * * * * * * * * * * * //
Create time

Create polyMesh for time = 0

Reading "createPatchDict"

Adding new patch frontAndBack as patch 6 from 
{
    type            empty;
}


Moving faces from patch front to patch 6
Moving faces from patch back to patch 6

Doing topology modification to order faces.

Not synchronising points.

Removing patches with no faces in them.

No patches removed.
Writing repatched mesh to 0

End

