/*---------------------------------------------------------------------------*\
  =========                 |
  \\      /  F ield         | OpenFOAM: The Open Source CFD Toolbox
   \\    /   O peration     | Website:  https://openfoam.org
    \\  /    A nd           | Version:  10
     \\/     M anipulation  |
\*---------------------------------------------------------------------------*/
Build  : 10-c4cf895ad8fa
Exec   : setFields
Date   : Aug 06 2025
Time   : 10:29:12
Host   : "Erazer"
PID    : 6283
I/O    : uncollated
Case   : /home/sahin/OpenFOAM/sahin-10/run/thermalTest
nProcs : 1
sigFpe : Enabling floating point exception trapping (FOAM_SIGFPE).
fileModificationChecking : Monitoring run-time modified files using timeStampMaster (fileModificationSkew 10)
allowSystemOperations : Allowing user-supplied system call operations

// * * * * * * * * * * * * * * * * * * * * * * * * * * * * * * * * * * * * * //
Create time

Create mesh for time = 0

Reading "setFieldsDict"

Setting field default values
    Setting internal values of volScalarField alpha.water
    Setting internal values of volScalarField T

Setting field region values
    Adding cells with centre within cylinder, with point1 = (0.0005 0.0005 0), point2 = (0.0005 0.0005 1) and radius = 0.00025
    Setting internal values of volScalarField T
    Adding cells with center within boxes 1((-1 -1 -1) (1 0.0015 1))
    Setting internal values of volScalarField alpha.water

End

