/*---------------------------------------------------------------------------*\
  =========                 |
  \\      /  F ield         | OpenFOAM: The Open Source CFD Toolbox
   \\    /   O peration     | Website:  https://openfoam.org
    \\  /    A nd           | Version:  10
     \\/     M anipulation  |
\*---------------------------------------------------------------------------*/
Build  : 10-c4cf895ad8fa
Exec   : checkMesh
Date   : Aug 06 2025
Time   : 10:29:12
Host   : "Erazer"
PID    : 6282
I/O    : uncollated
Case   : /home/sahin/OpenFOAM/sahin-10/run/thermalTest
nProcs : 1
sigFpe : Enabling floating point exception trapping (FOAM_SIGFPE).
fileModificationChecking : Monitoring run-time modified files using timeStampMaster (fileModificationSkew 10)
allowSystemOperations : Allowing user-supplied system call operations

// * * * * * * * * * * * * * * * * * * * * * * * * * * * * * * * * * * * * * //
Create time

Create polyMesh for time = 0

Time = 0s

Mesh stats
    points:           1722
    internal points:  0
    faces:            3260
    internal faces:   1540
    cells:            800
    faces per cell:   6
    boundary patches: 7
    point zones:      0
    face zones:       0
    cell zones:       0

Overall number of cells of each type:
    hexahedra:     800
    prisms:        0
    wedges:        0
    pyramids:      0
    tet wedges:    0
    tetrahedra:    0
    polyhedra:     0

Checking topology...
    Boundary definition OK.
    Cell to face addressing OK.
    Point usage OK.
    Upper triangular ordering OK.
    Face vertices OK.
    Number of regions: 1 (OK).

Checking patch topology for multiply connected surfaces...
    Patch               Faces    Points   Surface topology                  
    top                 20       42       ok (non-closed singly connected)  
    left                40       82       ok (non-closed singly connected)  
    right               40       82       ok (non-closed singly connected)  
    bottom              20       42       ok (non-closed singly connected)  
    front               0        0        ok (empty)                        
    back                0        0        ok (empty)                        
    frontAndBack        1600     1722     ok (non-closed singly connected)  

Checking geometry...
    Overall domain bounding box (0 0 0) (0.001 0.002 0.0001)
    Mesh has 2 geometric (non-empty/wedge) directions (1 1 0)
    Mesh has 2 solution (non-empty) directions (1 1 0)
    All edges aligned with or perpendicular to non-empty directions.
    Boundary openness (1.79822e-18 3.41662e-18 -1.80092e-16) OK.
    Max cell openness = 1.65436e-16 OK.
    Max aspect ratio = 1 OK.
    Minimum face area = 2.5e-09. Maximum face area = 5e-09.  Face area magnitudes OK.
    Min volume = 2.5e-13. Max volume = 2.5e-13.  Total volume = 2e-10.  Cell volumes OK.
    Mesh non-orthogonality Max: 0 average: 0
    Non-orthogonality check OK.
    Face pyramids OK.
    Max skewness = 4.33681e-14 OK.
    Coupled point location match (average 0) OK.

Mesh OK.

End

