/*---------------------------------------------------------------------------*\
  =========                 |
  \\      /  F ield         | OpenFOAM: The Open Source CFD Toolbox
   \\    /   O peration     | Website:  https://openfoam.org
    \\  /    A nd           | Version:  10
     \\/     M anipulation  |
\*---------------------------------------------------------------------------*/
Build  : 10-c4cf895ad8fa
Exec   : blockMesh
Date   : Aug 06 2025
Time   : 10:29:12
Host   : "Erazer"
PID    : 6280
I/O    : uncollated
Case   : /home/sahin/OpenFOAM/sahin-10/run/thermalTest
nProcs : 1
sigFpe : Enabling floating point exception trapping (FOAM_SIGFPE).
fileModificationChecking : Monitoring run-time modified files using timeStampMaster (fileModificationSkew 10)
allowSystemOperations : Allowing user-supplied system call operations

// * * * * * * * * * * * * * * * * * * * * * * * * * * * * * * * * * * * * * //
Create time

Reading "blockMeshDict"

Creating block mesh from
    "system/blockMeshDict"
Creating block edges
No non-planar block faces defined
Creating topology blocks
Creating topology patches

Creating block mesh topology

Check topology

	Basic statistics
		Number of internal faces : 0
		Number of boundary faces : 6
		Number of defined boundary faces : 6
		Number of undefined boundary faces : 0
	Checking patch -> block consistency

Creating block offsets
Creating merge list .

Creating polyMesh from blockMesh
Creating patches
Creating cells
Creating points with scale 0.001
    Block 0 cell size :
        i : 5e-05 .. 5e-05
        j : 5e-05 .. 5e-05
        k : 0.0001

Writing polyMesh
----------------
Mesh Information
----------------
  boundingBox: (0 0 0) (0.001 0.002 0.0001)
  nPoints: 1722
  nCells: 800
  nFaces: 3260
  nInternalFaces: 1540
----------------
Patches
----------------
  patch 0 (start: 1540 size: 20) name: top
  patch 1 (start: 1560 size: 40) name: left
  patch 2 (start: 1600 size: 40) name: right
  patch 3 (start: 1640 size: 20) name: bottom
  patch 4 (start: 1660 size: 800) name: front
  patch 5 (start: 2460 size: 800) name: back

End

