/*---------------------------------------------------------------------------*\
  =========                 |
  \\      /  F ield         | OpenFOAM: The Open Source CFD Toolbox
   \\    /   O peration     | Website:  https://openfoam.org
    \\  /    A nd           | Version:  10
     \\/     M anipulation  |
\*---------------------------------------------------------------------------*/
Build  : 10-c4cf895ad8fa
Exec   : interThermoFoam
Date   : Aug 06 2025
Time   : 10:29:13
Host   : "Erazer"
PID    : 6284
I/O    : uncollated
Case   : /home/sahin/OpenFOAM/sahin-10/run/thermalTest
nProcs : 1
sigFpe : Enabling floating point exception trapping (FOAM_SIGFPE).
fileModificationChecking : Monitoring run-time modified files using timeStampMaster (fileModificationSkew 10)
allowSystemOperations : Allowing user-supplied system call operations

// * * * * * * * * * * * * * * * * * * * * * * * * * * * * * * * * * * * * * //
Create time

Create mesh for time = 0


PIMPLE: No convergence criteria found


PIMPLE: Operating solver in transient mode with 1 outer corrector
PIMPLE: Operating solver in PISO mode


Reading field p_rgh

Reading field U

Reading/calculating face flux field phi

Reading phaseProperties

Selecting viscosity model Newtonian
Selecting viscosity model Newtonian
Selecting surfaceTensionModel temperatureDependent
No phase change: phaseChangeProperties not found
Selecting phaseChange model none
Reading thermophysical properties

Creating thermophysical fields

Set temperature reference to 300

Reading g

Reading hRef
Calculating field g.h

Selecting turbulence model type laminar
Selecting laminar stress model Stokes
No MRF models present

No fvModels present
No fvConstraints present
GAMG:  Solving for pcorr, Initial residual = 0, Final residual = 0, No Iterations 0
time step continuity errors : sum local = 0, global = 0, cumulative = 0
Courant Number mean: 0 max: 0

Starting time loop

Courant Number mean: 0 max: 0
Interface Courant Number mean: 0 max: 0
Diffusion number maximum: 16.5805
deltaT = 0.000119048
Time = 0.000119048s

smoothSolver:  Solving for alpha.water, Initial residual = 0, Final residual = 0, No Iterations 0
Phase-1 volume fraction = 0.75  Min(alpha.water) = 0  Max(alpha.water) = 1
MULES: Correcting alpha.water
Phase-1 volume fraction = 0.75  Min(alpha.water) = 0  Max(alpha.water) = 1
DILUPBiCGStab:  Solving for T, Initial residual = 0.00219632, Final residual = 1.74933e-07, No Iterations 1
min/max(T) = 300 , 310
DILUPBiCGStab:  Solving for Ux, Initial residual = 0.749014, Final residual = 1.63693e-07, No Iterations 3
DILUPBiCGStab:  Solving for Uy, Initial residual = 1, Final residual = 1.76653e-07, No Iterations 3
GAMG:  Solving for p_rgh, Initial residual = 1, Final residual = 0.0126512, No Iterations 1
time step continuity errors : sum local = 0.00107476, global = -0.000494005, cumulative = -0.000494005
GAMG:  Solving for p_rgh, Initial residual = 0.0197238, Final residual = 7.23115e-08, No Iterations 12
time step continuity errors : sum local = 6.21474e-08, global = -5.08351e-08, cumulative = -0.000494055
ExecutionTime = 0.015786 s  ClockTime = 0 s

Courant Number mean: 0.000692127 max: 0.0107329
Interface Courant Number mean: 0 max: 0
Diffusion number maximum: 19.7387
deltaT = 0.000141156
Time = 0.000260204s

smoothSolver:  Solving for alpha.water, Initial residual = 9.71896e-06, Final residual = 3.43224e-13, No Iterations 1
Phase-1 volume fraction = 0.75  Min(alpha.water) = 0  Max(alpha.water) = 1
MULES: Correcting alpha.water
Phase-1 volume fraction = 0.75  Min(alpha.water) = -2.4907e-37  Max(alpha.water) = 1
DILUPBiCGStab:  Solving for T, Initial residual = 0.00256708, Final residual = 2.85857e-07, No Iterations 1
min/max(T) = 300 , 310
DILUPBiCGStab:  Solving for Ux, Initial residual = 0.405115, Final residual = 1.08408e-07, No Iterations 3
DILUPBiCGStab:  Solving for Uy, Initial residual = 0.887436, Final residual = 6.4927e-07, No Iterations 3
GAMG:  Solving for p_rgh, Initial residual = 0.00178579, Final residual = 0.000149184, No Iterations 2
time step continuity errors : sum local = 0.000378662, global = 0.000378662, cumulative = -0.000115393
GAMG:  Solving for p_rgh, Initial residual = 0.000919897, Final residual = 7.83959e-08, No Iterations 9
time step continuity errors : sum local = 1.76409e-07, global = -7.36197e-10, cumulative = -0.000115394
ExecutionTime = 0.019947 s  ClockTime = 0 s

Courant Number mean: 0.00133783 max: 0.0151222
Interface Courant Number mean: 0 max: 0
Diffusion number maximum: 21.9643
deltaT = 0.000167928
Time = 0.000428132s

smoothSolver:  Solving for alpha.water, Initial residual = 0.000161996, Final residual = 6.84833e-09, No Iterations 1
Phase-1 volume fraction = 0.75  Min(alpha.water) = 0  Max(alpha.water) = 1
MULES: Correcting alpha.water
Phase-1 volume fraction = 0.75  Min(alpha.water) = 0  Max(alpha.water) = 1
DILUPBiCGStab:  Solving for T, Initial residual = 0.00300315, Final residual = 4.69999e-07, No Iterations 1
min/max(T) = 300 , 310
DILUPBiCGStab:  Solving for Ux, Initial residual = 0.338388, Final residual = 5.28573e-07, No Iterations 2
DILUPBiCGStab:  Solving for Uy, Initial residual = 0.872192, Final residual = 8.29738e-07, No Iterations 3
GAMG:  Solving for p_rgh, Initial residual = 0.0146797, Final residual = 0.000289209, No Iterations 1
time step continuity errors : sum local = 0.000891473, global = -0.000881023, cumulative = -0.000996417
GAMG:  Solving for p_rgh, Initial residual = 0.0023591, Final residual = 4.6801e-08, No Iterations 8
time step continuity errors : sum local = 1.45059e-07, global = -1.45059e-07, cumulative = -0.000996562
ExecutionTime = 0.025047 s  ClockTime = 0 s

Courant Number mean: 0.0159995 max: 0.389707
Interface Courant Number mean: 0.00191182 max: 0.389707
Diffusion number maximum: 27.7785
deltaT = 8.54631e-05
Time = 0.000513595s

smoothSolver:  Solving for alpha.water, Initial residual = 0.00225577, Final residual = 1.75158e-09, No Iterations 2
Phase-1 volume fraction = 0.75  Min(alpha.water) = 0  Max(alpha.water) = 1
MULES: Correcting alpha.water
Phase-1 volume fraction = 0.75  Min(alpha.water) = 0  Max(alpha.water) = 1
DILUPBiCGStab:  Solving for T, Initial residual = 0.00150129, Final residual = 6.32618e-08, No Iterations 1
min/max(T) = 300 , 310
DILUPBiCGStab:  Solving for Ux, Initial residual = 0.220231, Final residual = 8.1921e-08, No Iterations 2
DILUPBiCGStab:  Solving for Uy, Initial residual = 0.859032, Final residual = 4.16495e-07, No Iterations 2
GAMG:  Solving for p_rgh, Initial residual = 0.118574, Final residual = 0.00132239, No Iterations 1
time step continuity errors : sum local = 0.00180074, global = 0.000485749, cumulative = -0.000510813
GAMG:  Solving for p_rgh, Initial residual = 0.0267234, Final residual = 8.16573e-08, No Iterations 11
time step continuity errors : sum local = 6.88166e-08, global = 5.8488e-08, cumulative = -0.000510755
ExecutionTime = 0.028344 s  ClockTime = 0 s

Courant Number mean: 0.0540631 max: 1.3947
Interface Courant Number mean: 0.0113372 max: 1.18573
Diffusion number maximum: 13.3379
deltaT = 1.43952e-05
Time = 0.00052799s

smoothSolver:  Solving for alpha.water, Initial residual = 0.00219213, Final residual = 5.5089e-12, No Iterations 3
Phase-1 volume fraction = 0.75  Min(alpha.water) = 0  Max(alpha.water) = 1
MULES: Correcting alpha.water
Phase-1 volume fraction = 0.75  Min(alpha.water) = 0  Max(alpha.water) = 1
DILUPBiCGStab:  Solving for T, Initial residual = 0.000250678, Final residual = 3.09657e-10, No Iterations 1
min/max(T) = 300 , 310
DILUPBiCGStab:  Solving for Ux, Initial residual = 0.0911395, Final residual = 2.15453e-07, No Iterations 1
DILUPBiCGStab:  Solving for Uy, Initial residual = 0.148134, Final residual = 8.84205e-07, No Iterations 1
GAMG:  Solving for p_rgh, Initial residual = 0.456215, Final residual = 0.00342613, No Iterations 1
time step continuity errors : sum local = 4.85351e-05, global = -1.46975e-05, cumulative = -0.000525452
GAMG:  Solving for p_rgh, Initial residual = 0.00894973, Final residual = 5.81366e-08, No Iterations 12
time step continuity errors : sum local = 5.07552e-09, global = -3.98707e-09, cumulative = -0.000525456
ExecutionTime = 0.033423 s  ClockTime = 0 s

Courant Number mean: 0.00710078 max: 0.148178
Interface Courant Number mean: 0.00254197 max: 0.148178
Diffusion number maximum: 2.20682
deltaT = 1.63311e-05
Time = 0.000544321s

smoothSolver:  Solving for alpha.water, Initial residual = 0.00167071, Final residual = 3.08612e-09, No Iterations 2
Phase-1 volume fraction = 0.75  Min(alpha.water) = 0  Max(alpha.water) = 1
MULES: Correcting alpha.water
Phase-1 volume fraction = 0.75  Min(alpha.water) = 0  Max(alpha.water) = 1
DILUPBiCGStab:  Solving for T, Initial residual = 0.000284071, Final residual = 4.51222e-10, No Iterations 1
min/max(T) = 300 , 310
DILUPBiCGStab:  Solving for Ux, Initial residual = 0.103283, Final residual = 7.36835e-08, No Iterations 1
DILUPBiCGStab:  Solving for Uy, Initial residual = 0.207181, Final residual = 5.14379e-09, No Iterations 2
GAMG:  Solving for p_rgh, Initial residual = 0.0168755, Final residual = 0.000165189, No Iterations 1
time step continuity errors : sum local = 6.97176e-05, global = 6.07505e-06, cumulative = -0.000519381
GAMG:  Solving for p_rgh, Initial residual = 0.00216456, Final residual = 6.08403e-08, No Iterations 9
time step continuity errors : sum local = 2.12337e-08, global = 1.70876e-08, cumulative = -0.000519364
ExecutionTime = 0.037197 s  ClockTime = 0 s

Courant Number mean: 0.00506914 max: 0.0947829
Interface Courant Number mean: 0.00156094 max: 0.0947829
Diffusion number maximum: 2.53765
deltaT = 1.9577e-05
Time = 0.000563898s

smoothSolver:  Solving for alpha.water, Initial residual = 0.00114541, Final residual = 5.89498e-10, No Iterations 2
Phase-1 volume fraction = 0.75  Min(alpha.water) = 0  Max(alpha.water) = 1
MULES: Correcting alpha.water
Phase-1 volume fraction = 0.75  Min(alpha.water) = 0  Max(alpha.water) = 1
DILUPBiCGStab:  Solving for T, Initial residual = 0.000339977, Final residual = 7.75403e-10, No Iterations 1
min/max(T) = 300 , 310
DILUPBiCGStab:  Solving for Ux, Initial residual = 0.258116, Final residual = 1.33147e-07, No Iterations 1
DILUPBiCGStab:  Solving for Uy, Initial residual = 0.387859, Final residual = 1.3797e-08, No Iterations 2
GAMG:  Solving for p_rgh, Initial residual = 0.0407491, Final residual = 0.000476501, No Iterations 1
time step continuity errors : sum local = 0.000128331, global = 4.92598e-06, cumulative = -0.000514438
GAMG:  Solving for p_rgh, Initial residual = 0.00562247, Final residual = 6.10831e-08, No Iterations 10
time step continuity errors : sum local = 1.24883e-08, global = 9.94889e-09, cumulative = -0.000514428
ExecutionTime = 0.041865 s  ClockTime = 0 s

Courant Number mean: 0.00327701 max: 0.0551447
Interface Courant Number mean: 0.000655012 max: 0.05175
Diffusion number maximum: 3.0398
deltaT = 2.34729e-05
Time = 0.000587371s

smoothSolver:  Solving for alpha.water, Initial residual = 0.000443203, Final residual = 1.6343e-12, No Iterations 2
Phase-1 volume fraction = 0.75  Min(alpha.water) = 0  Max(alpha.water) = 1
MULES: Correcting alpha.water
Phase-1 volume fraction = 0.75  Min(alpha.water) = 0  Max(alpha.water) = 1
DILUPBiCGStab:  Solving for T, Initial residual = 0.000406643, Final residual = 1.33123e-09, No Iterations 1
min/max(T) = 300 , 310
DILUPBiCGStab:  Solving for Ux, Initial residual = 0.638145, Final residual = 3.80084e-07, No Iterations 1
DILUPBiCGStab:  Solving for Uy, Initial residual = 0.6497, Final residual = 8.45552e-07, No Iterations 1
GAMG:  Solving for p_rgh, Initial residual = 0.0845504, Final residual = 0.000617643, No Iterations 1
time step continuity errors : sum local = 4.38916e-05, global = 7.23243e-06, cumulative = -0.000507196
GAMG:  Solving for p_rgh, Initial residual = 0.0087304, Final residual = 6.13638e-08, No Iterations 8
time step continuity errors : sum local = 3.92678e-09, global = -1.48666e-10, cumulative = -0.000507196
ExecutionTime = 0.044956 s  ClockTime = 0 s

Courant Number mean: 0.00718253 max: 0.171765
Interface Courant Number mean: 0.00280747 max: 0.164865
Diffusion number maximum: 3.66938
deltaT = 2.62923e-05
Time = 0.000613663s

smoothSolver:  Solving for alpha.water, Initial residual = 0.00163483, Final residual = 1.30244e-09, No Iterations 2
Phase-1 volume fraction = 0.75  Min(alpha.water) = 0  Max(alpha.water) = 1
MULES: Correcting alpha.water
Phase-1 volume fraction = 0.75  Min(alpha.water) = 0  Max(alpha.water) = 1
DILUPBiCGStab:  Solving for T, Initial residual = 0.00045411, Final residual = 1.86325e-09, No Iterations 1
min/max(T) = 300 , 310
DILUPBiCGStab:  Solving for Ux, Initial residual = 0.432279, Final residual = 6.07742e-07, No Iterations 1
DILUPBiCGStab:  Solving for Uy, Initial residual = 0.432988, Final residual = 5.29676e-08, No Iterations 2
GAMG:  Solving for p_rgh, Initial residual = 0.462346, Final residual = 0.00403143, No Iterations 1
time step continuity errors : sum local = 0.000143379, global = -3.1792e-06, cumulative = -0.000510375
GAMG:  Solving for p_rgh, Initial residual = 0.0231351, Final residual = 9.1786e-08, No Iterations 11
time step continuity errors : sum local = 7.44863e-09, global = -6.00693e-09, cumulative = -0.000510381
ExecutionTime = 0.048423 s  ClockTime = 0 s

Courant Number mean: 0.00742805 max: 0.140218
Interface Courant Number mean: 0.00296374 max: 0.140218
Diffusion number maximum: 4.02817
deltaT = 2.99883e-05
Time = 0.000643651s

smoothSolver:  Solving for alpha.water, Initial residual = 0.00176349, Final residual = 1.34151e-09, No Iterations 2
Phase-1 volume fraction = 0.75  Min(alpha.water) = 0  Max(alpha.water) = 1
MULES: Correcting alpha.water
Phase-1 volume fraction = 0.75  Min(alpha.water) = 0  Max(alpha.water) = 1
DILUPBiCGStab:  Solving for T, Initial residual = 0.000516394, Final residual = 2.75357e-09, No Iterations 1
min/max(T) = 300 , 310
DILUPBiCGStab:  Solving for Ux, Initial residual = 0.241672, Final residual = 3.26797e-07, No Iterations 1
DILUPBiCGStab:  Solving for Uy, Initial residual = 0.390858, Final residual = 7.98936e-08, No Iterations 2
GAMG:  Solving for p_rgh, Initial residual = 0.0451458, Final residual = 0.000216289, No Iterations 1
time step continuity errors : sum local = 7.19749e-05, global = -6.68747e-06, cumulative = -0.000517069
GAMG:  Solving for p_rgh, Initial residual = 0.00459265, Final residual = 8.2084e-08, No Iterations 7
time step continuity errors : sum local = 2.9039e-08, global = -6.4933e-09, cumulative = -0.000517075
ExecutionTime = 0.051606 s  ClockTime = 0 s

Courant Number mean: 0.00556492 max: 0.0809779
Interface Courant Number mean: 0.00190659 max: 0.0809779
Diffusion number maximum: 1.86011
deltaT = 3.5986e-05
Time = 0.000679637s

smoothSolver:  Solving for alpha.water, Initial residual = 0.00128466, Final residual = 1.41042e-10, No Iterations 2
Phase-1 volume fraction = 0.75  Min(alpha.water) = 0  Max(alpha.water) = 1
MULES: Correcting alpha.water
Phase-1 volume fraction = 0.75  Min(alpha.water) = 0  Max(alpha.water) = 1
DILUPBiCGStab:  Solving for T, Initial residual = 0.000617565, Final residual = 4.73337e-09, No Iterations 1
min/max(T) = 300 , 310
DILUPBiCGStab:  Solving for Ux, Initial residual = 0.27527, Final residual = 5.16622e-07, No Iterations 1
DILUPBiCGStab:  Solving for Uy, Initial residual = 0.58909, Final residual = 1.30165e-07, No Iterations 2
GAMG:  Solving for p_rgh, Initial residual = 0.0341739, Final residual = 0.000218984, No Iterations 1
time step continuity errors : sum local = 0.000109245, global = 6.38919e-06, cumulative = -0.000510686
GAMG:  Solving for p_rgh, Initial residual = 0.00447184, Final residual = 5.38865e-08, No Iterations 9
time step continuity errors : sum local = 2.4606e-08, global = 2.17838e-08, cumulative = -0.000510664
ExecutionTime = 0.06003 s  ClockTime = 0 s

Courant Number mean: 0.00601966 max: 0.119375
Interface Courant Number mean: 0.00232907 max: 0.119375
Diffusion number maximum: 2.23213
deltaT = 4.19836e-05
Time = 0.000721621s

smoothSolver:  Solving for alpha.water, Initial residual = 0.00130106, Final residual = 4.27297e-10, No Iterations 2
Phase-1 volume fraction = 0.75  Min(alpha.water) = 0  Max(alpha.water) = 1
MULES: Correcting alpha.water
Phase-1 volume fraction = 0.75  Min(alpha.water) = 0  Max(alpha.water) = 1
DILUPBiCGStab:  Solving for T, Initial residual = 0.000717479, Final residual = 7.47194e-09, No Iterations 1
min/max(T) = 300 , 310
DILUPBiCGStab:  Solving for Ux, Initial residual = 0.531461, Final residual = 2.4406e-08, No Iterations 2
DILUPBiCGStab:  Solving for Uy, Initial residual = 0.586041, Final residual = 1.63476e-07, No Iterations 2
GAMG:  Solving for p_rgh, Initial residual = 0.0626588, Final residual = 0.000277233, No Iterations 1
time step continuity errors : sum local = 0.000103027, global = 4.02272e-06, cumulative = -0.000506641
GAMG:  Solving for p_rgh, Initial residual = 0.00682241, Final residual = 6.66697e-08, No Iterations 9
time step continuity errors : sum local = 2.5192e-08, global = -1.98865e-08, cumulative = -0.000506661
ExecutionTime = 0.066587 s  ClockTime = 0 s

Courant Number mean: 0.00768944 max: 0.121952
Interface Courant Number mean: 0.00255743 max: 0.121952
Diffusion number maximum: 2.78287
deltaT = 4.88336e-05
Time = 0.000770454s

smoothSolver:  Solving for alpha.water, Initial residual = 0.00145826, Final residual = 4.6298e-10, No Iterations 2
Phase-1 volume fraction = 0.75  Min(alpha.water) = 0  Max(alpha.water) = 1
MULES: Correcting alpha.water
Phase-1 volume fraction = 0.75  Min(alpha.water) = 0  Max(alpha.water) = 1
DILUPBiCGStab:  Solving for T, Initial residual = 0.000830458, Final residual = 1.16767e-08, No Iterations 1
min/max(T) = 300 , 310
DILUPBiCGStab:  Solving for Ux, Initial residual = 0.386152, Final residual = 3.35566e-08, No Iterations 2
DILUPBiCGStab:  Solving for Uy, Initial residual = 0.60524, Final residual = 2.97965e-07, No Iterations 2
GAMG:  Solving for p_rgh, Initial residual = 0.0463548, Final residual = 0.000170839, No Iterations 1
time step continuity errors : sum local = 9.95089e-05, global = -1.58363e-05, cumulative = -0.000522497
GAMG:  Solving for p_rgh, Initial residual = 0.00750336, Final residual = 7.66904e-08, No Iterations 7
time step continuity errors : sum local = 4.63934e-08, global = 4.63934e-08, cumulative = -0.000522451
ExecutionTime = 0.06989 s  ClockTime = 0 s

Courant Number mean: 0.00597162 max: 0.0969967
Interface Courant Number mean: 0.00202242 max: 0.0969967
Diffusion number maximum: 3.02904
deltaT = 5.84148e-05
Time = 0.000828869s

smoothSolver:  Solving for alpha.water, Initial residual = 0.00109596, Final residual = 5.2707e-11, No Iterations 2
Phase-1 volume fraction = 0.75  Min(alpha.water) = 0  Max(alpha.water) = 1
MULES: Correcting alpha.water
Phase-1 volume fraction = 0.75  Min(alpha.water) = 0  Max(alpha.water) = 1
DILUPBiCGStab:  Solving for T, Initial residual = 0.000987767, Final residual = 1.98144e-08, No Iterations 1
min/max(T) = 300 , 310
DILUPBiCGStab:  Solving for Ux, Initial residual = 0.428341, Final residual = 7.13504e-08, No Iterations 2
DILUPBiCGStab:  Solving for Uy, Initial residual = 0.664124, Final residual = 8.84114e-07, No Iterations 2
GAMG:  Solving for p_rgh, Initial residual = 0.0404297, Final residual = 0.000256858, No Iterations 1
time step continuity errors : sum local = 0.000195191, global = 3.81254e-06, cumulative = -0.000518639
GAMG:  Solving for p_rgh, Initial residual = 0.00653007, Final residual = 8.57137e-08, No Iterations 7
time step continuity errors : sum local = 6.32545e-08, global = 6.32545e-08, cumulative = -0.000518575
ExecutionTime = 0.076257 s  ClockTime = 0 s

Courant Number mean: 0.00957239 max: 0.167073
Interface Courant Number mean: 0.00311415 max: 0.167073
Diffusion number maximum: 3.67489
deltaT = 6.50435e-05
Time = 0.000893913s

smoothSolver:  Solving for alpha.water, Initial residual = 0.00176512, Final residual = 3.24142e-10, No Iterations 2
Phase-1 volume fraction = 0.75  Min(alpha.water) = 0  Max(alpha.water) = 1
MULES: Correcting alpha.water
Phase-1 volume fraction = 0.75  Min(alpha.water) = -1.22333e-41  Max(alpha.water) = 1
DILUPBiCGStab:  Solving for T, Initial residual = 0.0010925, Final residual = 2.71312e-08, No Iterations 1
min/max(T) = 300 , 310
DILUPBiCGStab:  Solving for Ux, Initial residual = 0.439155, Final residual = 1.59386e-07, No Iterations 2
DILUPBiCGStab:  Solving for Uy, Initial residual = 0.712906, Final residual = 8.39649e-08, No Iterations 2
GAMG:  Solving for p_rgh, Initial residual = 0.0644056, Final residual = 0.000290309, No Iterations 1
time step continuity errors : sum local = 0.000227272, global = 5.37827e-06, cumulative = -0.000513197
GAMG:  Solving for p_rgh, Initial residual = 0.013204, Final residual = 6.60038e-08, No Iterations 9
time step continuity errors : sum local = 5.05931e-08, global = -3.25699e-08, cumulative = -0.00051323
ExecutionTime = 0.080309 s  ClockTime = 0 s

Courant Number mean: 0.0103474 max: 0.21719
Interface Courant Number mean: 0.00348434 max: 0.17385
Diffusion number maximum: 4.03451
deltaT = 7.22705e-05
Time = 0.000966183s

smoothSolver:  Solving for alpha.water, Initial residual = 0.00221548, Final residual = 3.92624e-09, No Iterations 2
Phase-1 volume fraction = 0.75  Min(alpha.water) = 0  Max(alpha.water) = 1
MULES: Correcting alpha.water
Phase-1 volume fraction = 0.75  Min(alpha.water) = 0  Max(alpha.water) = 1
DILUPBiCGStab:  Solving for T, Initial residual = 0.00120478, Final residual = 3.68705e-08, No Iterations 1
min/max(T) = 300 , 310
DILUPBiCGStab:  Solving for Ux, Initial residual = 0.49164, Final residual = 2.57288e-07, No Iterations 2
DILUPBiCGStab:  Solving for Uy, Initial residual = 0.753018, Final residual = 2.33475e-07, No Iterations 2
GAMG:  Solving for p_rgh, Initial residual = 0.0675238, Final residual = 0.000596375, No Iterations 1
time step continuity errors : sum local = 0.00055133, global = -5.5779e-05, cumulative = -0.000569009
GAMG:  Solving for p_rgh, Initial residual = 0.0139603, Final residual = 3.71598e-08, No Iterations 9
time step continuity errors : sum local = 3.24802e-08, global = 3.01005e-08, cumulative = -0.000568978
ExecutionTime = 0.086138 s  ClockTime = 0 s

Courant Number mean: 0.0203014 max: 0.504641
Interface Courant Number mean: 0.00861695 max: 0.504641
Diffusion number maximum: 4.5068
deltaT = 2.8588e-05
Time = 0.000994771s

smoothSolver:  Solving for alpha.water, Initial residual = 0.00175262, Final residual = 3.01268e-10, No Iterations 2
Phase-1 volume fraction = 0.75  Min(alpha.water) = 0  Max(alpha.water) = 1
MULES: Correcting alpha.water
Phase-1 volume fraction = 0.75  Min(alpha.water) = 0  Max(alpha.water) = 1
DILUPBiCGStab:  Solving for T, Initial residual = 0.000473103, Final residual = 2.31227e-09, No Iterations 1
min/max(T) = 300 , 310
DILUPBiCGStab:  Solving for Ux, Initial residual = 0.209001, Final residual = 4.26717e-07, No Iterations 1
DILUPBiCGStab:  Solving for Uy, Initial residual = 0.320039, Final residual = 4.13346e-08, No Iterations 2
GAMG:  Solving for p_rgh, Initial residual = 0.0510261, Final residual = 0.000235167, No Iterations 1
time step continuity errors : sum local = 4.65939e-05, global = 1.11256e-05, cumulative = -0.000557853
GAMG:  Solving for p_rgh, Initial residual = 0.00602404, Final residual = 9.57934e-08, No Iterations 9
time step continuity errors : sum local = 2.22531e-08, global = -1.85742e-08, cumulative = -0.000557871
ExecutionTime = 0.08946 s  ClockTime = 0 s

Courant Number mean: 0.00471946 max: 0.0866095
Interface Courant Number mean: 0.00164448 max: 0.0791977
Diffusion number maximum: 1.80391
deltaT = 3.42404e-05
Time = 0.00102901s

smoothSolver:  Solving for alpha.water, Initial residual = 0.000987241, Final residual = 2.31746e-11, No Iterations 2
Phase-1 volume fraction = 0.75  Min(alpha.water) = 0  Max(alpha.water) = 1
MULES: Correcting alpha.water
Phase-1 volume fraction = 0.75  Min(alpha.water) = 0  Max(alpha.water) = 1
DILUPBiCGStab:  Solving for T, Initial residual = 0.000564665, Final residual = 3.94982e-09, No Iterations 1
min/max(T) = 300 , 310
DILUPBiCGStab:  Solving for Ux, Initial residual = 0.24248, Final residual = 4.24396e-07, No Iterations 1
DILUPBiCGStab:  Solving for Uy, Initial residual = 0.529016, Final residual = 8.63925e-08, No Iterations 2
GAMG:  Solving for p_rgh, Initial residual = 0.0234565, Final residual = 0.000242529, No Iterations 1
time step continuity errors : sum local = 0.000116917, global = -1.85847e-06, cumulative = -0.00055973
GAMG:  Solving for p_rgh, Initial residual = 0.00292049, Final residual = 6.09969e-08, No Iterations 9
time step continuity errors : sum local = 2.48188e-08, global = 2.24073e-08, cumulative = -0.000559707
ExecutionTime = 0.09288 s  ClockTime = 0 s

Courant Number mean: 0.0052561 max: 0.11351
Interface Courant Number mean: 0.00226973 max: 0.11351
Diffusion number maximum: 2.166
deltaT = 4.02286e-05
Time = 0.00106924s

smoothSolver:  Solving for alpha.water, Initial residual = 0.00127492, Final residual = 1.67822e-10, No Iterations 2
Phase-1 volume fraction = 0.75  Min(alpha.water) = 0  Max(alpha.water) = 1
MULES: Correcting alpha.water
Phase-1 volume fraction = 0.75  Min(alpha.water) = 0  Max(alpha.water) = 1
DILUPBiCGStab:  Solving for T, Initial residual = 0.000660789, Final residual = 6.36973e-09, No Iterations 1
min/max(T) = 300 , 310
DILUPBiCGStab:  Solving for Ux, Initial residual = 0.536703, Final residual = 3.55534e-08, No Iterations 2
DILUPBiCGStab:  Solving for Uy, Initial residual = 0.509539, Final residual = 1.4644e-07, No Iterations 2
GAMG:  Solving for p_rgh, Initial residual = 0.0607808, Final residual = 0.000515709, No Iterations 1
time step continuity errors : sum local = 0.000139287, global = 6.8878e-06, cumulative = -0.00055282
GAMG:  Solving for p_rgh, Initial residual = 0.00624039, Final residual = 7.1873e-08, No Iterations 9
time step continuity errors : sum local = 2.22234e-08, global = -1.90799e-08, cumulative = -0.000552839
ExecutionTime = 0.096209 s  ClockTime = 0 s

Courant Number mean: 0.00546204 max: 0.108882
Interface Courant Number mean: 0.00214243 max: 0.108882
Diffusion number maximum: 2.54239
deltaT = 4.7504e-05
Time = 0.00111674s

smoothSolver:  Solving for alpha.water, Initial residual = 0.00125746, Final residual = 1.34329e-10, No Iterations 2
Phase-1 volume fraction = 0.75  Min(alpha.water) = 0  Max(alpha.water) = 1
MULES: Correcting alpha.water
Phase-1 volume fraction = 0.75  Min(alpha.water) = 0  Max(alpha.water) = 1
DILUPBiCGStab:  Solving for T, Initial residual = 0.000776317, Final residual = 1.0408e-08, No Iterations 1
min/max(T) = 300 , 310
DILUPBiCGStab:  Solving for Ux, Initial residual = 0.298694, Final residual = 9.3239e-07, No Iterations 1
DILUPBiCGStab:  Solving for Uy, Initial residual = 0.598697, Final residual = 5.01119e-07, No Iterations 2
GAMG:  Solving for p_rgh, Initial residual = 0.0398463, Final residual = 0.000221882, No Iterations 1
time step continuity errors : sum local = 0.00012651, global = -2.28822e-05, cumulative = -0.000575721
GAMG:  Solving for p_rgh, Initial residual = 0.00536171, Final residual = 6.14085e-08, No Iterations 7
time step continuity errors : sum local = 3.44575e-08, global = 3.44575e-08, cumulative = -0.000575686
ExecutionTime = 0.099292 s  ClockTime = 0 s

Courant Number mean: 0.00564203 max: 0.0778848
Interface Courant Number mean: 0.00224277 max: 0.0778848
Diffusion number maximum: 3.03125
deltaT = 5.69439e-05
Time = 0.00117369s

smoothSolver:  Solving for alpha.water, Initial residual = 0.00126347, Final residual = 1.53302e-11, No Iterations 2
Phase-1 volume fraction = 0.75  Min(alpha.water) = 0  Max(alpha.water) = 1
MULES: Correcting alpha.water
Phase-1 volume fraction = 0.75  Min(alpha.water) = 0  Max(alpha.water) = 1
DILUPBiCGStab:  Solving for T, Initial residual = 0.000924957, Final residual = 1.77611e-08, No Iterations 1
min/max(T) = 300 , 310
DILUPBiCGStab:  Solving for Ux, Initial residual = 0.499806, Final residual = 6.89893e-08, No Iterations 2
DILUPBiCGStab:  Solving for Uy, Initial residual = 0.588778, Final residual = 5.25168e-07, No Iterations 2
GAMG:  Solving for p_rgh, Initial residual = 0.0446425, Final residual = 0.000168879, No Iterations 1
time step continuity errors : sum local = 0.000113444, global = 2.555e-05, cumulative = -0.000550136
GAMG:  Solving for p_rgh, Initial residual = 0.00558808, Final residual = 5.3722e-08, No Iterations 7
time step continuity errors : sum local = 3.61722e-08, global = -1.31866e-08, cumulative = -0.00055015
ExecutionTime = 0.102177 s  ClockTime = 0 s

Courant Number mean: 0.00387977 max: 0.0424207
Interface Courant Number mean: 0.00118153 max: 0.0405953
Diffusion number maximum: 3.62973
deltaT = 6.78947e-05
Time = 0.00124158s

smoothSolver:  Solving for alpha.water, Initial residual = 0.000615386, Final residual = 3.4843e-13, No Iterations 2
Phase-1 volume fraction = 0.75  Min(alpha.water) = 0  Max(alpha.water) = 1
MULES: Correcting alpha.water
Phase-1 volume fraction = 0.75  Min(alpha.water) = 0  Max(alpha.water) = 1
DILUPBiCGStab:  Solving for T, Initial residual = 0.00109473, Final residual = 2.97657e-08, No Iterations 1
min/max(T) = 300 , 310
DILUPBiCGStab:  Solving for Ux, Initial residual = 0.376459, Final residual = 1.54512e-07, No Iterations 2
DILUPBiCGStab:  Solving for Uy, Initial residual = 0.573613, Final residual = 8.22807e-07, No Iterations 2
GAMG:  Solving for p_rgh, Initial residual = 0.021357, Final residual = 8.10542e-05, No Iterations 1
time step continuity errors : sum local = 7.29693e-05, global = -3.26743e-05, cumulative = -0.000582824
GAMG:  Solving for p_rgh, Initial residual = 0.00312324, Final residual = 7.03007e-08, No Iterations 6
time step continuity errors : sum local = 6.24251e-08, global = 2.47567e-08, cumulative = -0.000582799
ExecutionTime = 0.105341 s  ClockTime = 0 s

Courant Number mean: 0.00678452 max: 0.0961927
Interface Courant Number mean: 0.00252157 max: 0.0961926
Diffusion number maximum: 4.21934
deltaT = 8.10965e-05
Time = 0.00132268s

smoothSolver:  Solving for alpha.water, Initial residual = 0.00148013, Final residual = 5.90794e-10, No Iterations 2
Phase-1 volume fraction = 0.75  Min(alpha.water) = 0  Max(alpha.water) = 1
MULES: Correcting alpha.water
Phase-1 volume fraction = 0.75  Min(alpha.water) = 0  Max(alpha.water) = 1
DILUPBiCGStab:  Solving for T, Initial residual = 0.00129631, Final residual = 5.00596e-08, No Iterations 1
min/max(T) = 300 , 310
DILUPBiCGStab:  Solving for Ux, Initial residual = 0.381891, Final residual = 2.88397e-07, No Iterations 2
DILUPBiCGStab:  Solving for Uy, Initial residual = 0.778918, Final residual = 1.41176e-07, No Iterations 2
GAMG:  Solving for p_rgh, Initial residual = 0.0583136, Final residual = 0.000209068, No Iterations 1
time step continuity errors : sum local = 0.000234806, global = 3.91447e-05, cumulative = -0.000543654
GAMG:  Solving for p_rgh, Initial residual = 0.00837149, Final residual = 9.67539e-08, No Iterations 7
time step continuity errors : sum local = 1.06107e-07, global = 1.06107e-07, cumulative = -0.000543548
ExecutionTime = 0.108287 s  ClockTime = 0 s

Courant Number mean: 0.0235473 max: 0.283851
Interface Courant Number mean: 0.009953 max: 0.270249
Diffusion number maximum: 5.03024
deltaT = 5.98436e-05
Time = 0.00138252s

smoothSolver:  Solving for alpha.water, Initial residual = 0.00381185, Final residual = 3.91245e-09, No Iterations 2
Phase-1 volume fraction = 0.75  Min(alpha.water) = 0  Max(alpha.water) = 1
MULES: Correcting alpha.water
Phase-1 volume fraction = 0.75  Min(alpha.water) = 0  Max(alpha.water) = 1
DILUPBiCGStab:  Solving for T, Initial residual = 0.00094712, Final residual = 2.01185e-08, No Iterations 1
min/max(T) = 300 , 310
DILUPBiCGStab:  Solving for Ux, Initial residual = 0.302728, Final residual = 8.23278e-08, No Iterations 2
DILUPBiCGStab:  Solving for Uy, Initial residual = 0.743801, Final residual = 1.54771e-07, No Iterations 2
GAMG:  Solving for p_rgh, Initial residual = 0.109289, Final residual = 0.00114736, No Iterations 1
time step continuity errors : sum local = 0.000761521, global = -0.000123181, cumulative = -0.000666729
GAMG:  Solving for p_rgh, Initial residual = 0.0248151, Final residual = 6.93233e-08, No Iterations 9
time step continuity errors : sum local = 4.54082e-08, global = 3.27284e-08, cumulative = -0.000666696
ExecutionTime = 0.111678 s  ClockTime = 0 s

Courant Number mean: 0.0205236 max: 0.26256
Interface Courant Number mean: 0.00901818 max: 0.239451
Diffusion number maximum: 3.71197
deltaT = 4.9812e-05
Time = 0.00143234s

smoothSolver:  Solving for alpha.water, Initial residual = 0.00402514, Final residual = 3.67041e-09, No Iterations 2
Phase-1 volume fraction = 0.75  Min(alpha.water) = 0  Max(alpha.water) = 1
MULES: Correcting alpha.water
Phase-1 volume fraction = 0.75  Min(alpha.water) = 0  Max(alpha.water) = 1
DILUPBiCGStab:  Solving for T, Initial residual = 0.000782574, Final residual = 1.15751e-08, No Iterations 1
min/max(T) = 300 , 310
DILUPBiCGStab:  Solving for Ux, Initial residual = 0.422249, Final residual = 6.91086e-08, No Iterations 2
DILUPBiCGStab:  Solving for Uy, Initial residual = 0.666628, Final residual = 3.81617e-07, No Iterations 2
GAMG:  Solving for p_rgh, Initial residual = 0.114672, Final residual = 0.000251702, No Iterations 1
time step continuity errors : sum local = 0.000110701, global = 7.24742e-05, cumulative = -0.000594222
GAMG:  Solving for p_rgh, Initial residual = 0.0160274, Final residual = 6.01666e-08, No Iterations 10
time step continuity errors : sum local = 3.14076e-08, global = -2.68844e-08, cumulative = -0.000594249
ExecutionTime = 0.114718 s  ClockTime = 0 s

Courant Number mean: 0.00252448 max: 0.031683
Interface Courant Number mean: 0.000585181 max: 0.0218168
Diffusion number maximum: 3.08973
deltaT = 5.94977e-05
Time = 0.00149183s

smoothSolver:  Solving for alpha.water, Initial residual = 0.000320101, Final residual = 9.80169e-09, No Iterations 1
Phase-1 volume fraction = 0.75  Min(alpha.water) = 0  Max(alpha.water) = 1
MULES: Correcting alpha.water
Phase-1 volume fraction = 0.75  Min(alpha.water) = 0  Max(alpha.water) = 1
DILUPBiCGStab:  Solving for T, Initial residual = 0.000928806, Final residual = 1.95301e-08, No Iterations 1
min/max(T) = 300 , 310
DILUPBiCGStab:  Solving for Ux, Initial residual = 0.837337, Final residual = 9.307e-08, No Iterations 2
DILUPBiCGStab:  Solving for Uy, Initial residual = 0.765065, Final residual = 3.34198e-07, No Iterations 2
GAMG:  Solving for p_rgh, Initial residual = 0.0109165, Final residual = 0.000129737, No Iterations 1
time step continuity errors : sum local = 0.000132954, global = -3.68995e-05, cumulative = -0.000631149
GAMG:  Solving for p_rgh, Initial residual = 0.0025593, Final residual = 6.61458e-08, No Iterations 9
time step continuity errors : sum local = 5.95343e-08, global = 5.51438e-08, cumulative = -0.000631093
ExecutionTime = 0.118059 s  ClockTime = 0 s

Courant Number mean: 0.019043 max: 0.226907
Interface Courant Number mean: 0.00797766 max: 0.222075
Diffusion number maximum: 3.69051
deltaT = 5.35105e-05
Time = 0.00154534s

smoothSolver:  Solving for alpha.water, Initial residual = 0.00364992, Final residual = 4.48995e-09, No Iterations 2
Phase-1 volume fraction = 0.75  Min(alpha.water) = 0  Max(alpha.water) = 1
MULES: Correcting alpha.water
Phase-1 volume fraction = 0.75  Min(alpha.water) = 0  Max(alpha.water) = 1
DILUPBiCGStab:  Solving for T, Initial residual = 0.00082924, Final residual = 1.41506e-08, No Iterations 1
min/max(T) = 300 , 310
DILUPBiCGStab:  Solving for Ux, Initial residual = 0.33174, Final residual = 5.3944e-08, No Iterations 2
DILUPBiCGStab:  Solving for Uy, Initial residual = 0.70748, Final residual = 4.99943e-08, No Iterations 2
GAMG:  Solving for p_rgh, Initial residual = 0.116358, Final residual = 0.0010351, No Iterations 1
time step continuity errors : sum local = 0.000511212, global = -7.18886e-05, cumulative = -0.000702982
GAMG:  Solving for p_rgh, Initial residual = 0.0219424, Final residual = 8.54381e-08, No Iterations 9
time step continuity errors : sum local = 4.6105e-08, global = -3.68112e-08, cumulative = -0.000703019
ExecutionTime = 0.121242 s  ClockTime = 0 s

Courant Number mean: 0.0104216 max: 0.134186
Interface Courant Number mean: 0.00458951 max: 0.134186
Diffusion number maximum: 3.31914
deltaT = 6.12656e-05
Time = 0.00160661s

smoothSolver:  Solving for alpha.water, Initial residual = 0.00274517, Final residual = 1.0714e-09, No Iterations 2
Phase-1 volume fraction = 0.75  Min(alpha.water) = 0  Max(alpha.water) = 1
MULES: Correcting alpha.water
Phase-1 volume fraction = 0.75  Min(alpha.water) = 0  Max(alpha.water) = 1
DILUPBiCGStab:  Solving for T, Initial residual = 0.00094304, Final residual = 2.1038e-08, No Iterations 1
min/max(T) = 300 , 310
DILUPBiCGStab:  Solving for Ux, Initial residual = 0.564944, Final residual = 7.44405e-08, No Iterations 2
DILUPBiCGStab:  Solving for Uy, Initial residual = 0.719899, Final residual = 7.77021e-07, No Iterations 2
GAMG:  Solving for p_rgh, Initial residual = 0.0788674, Final residual = 0.000389616, No Iterations 1
time step continuity errors : sum local = 0.00030111, global = 0.000119407, cumulative = -0.000583612
GAMG:  Solving for p_rgh, Initial residual = 0.00942298, Final residual = 7.85227e-08, No Iterations 8
time step continuity errors : sum local = 6.09663e-08, global = -3.1922e-08, cumulative = -0.000583644
ExecutionTime = 0.124448 s  ClockTime = 0 s

Courant Number mean: 0.0023409 max: 0.0270033
Interface Courant Number mean: 0.000584106 max: 0.0270033
Diffusion number maximum: 3.80017
deltaT = 7.2986e-05
Time = 0.00167959s

smoothSolver:  Solving for alpha.water, Initial residual = 0.000259565, Final residual = 8.3348e-09, No Iterations 1
Phase-1 volume fraction = 0.75  Min(alpha.water) = 0  Max(alpha.water) = 1
MULES: Correcting alpha.water
Phase-1 volume fraction = 0.75  Min(alpha.water) = 0  Max(alpha.water) = 1
DILUPBiCGStab:  Solving for T, Initial residual = 0.00111481, Final residual = 3.51464e-08, No Iterations 1
min/max(T) = 300 , 310
DILUPBiCGStab:  Solving for Ux, Initial residual = 0.617254, Final residual = 1.90457e-07, No Iterations 2
DILUPBiCGStab:  Solving for Uy, Initial residual = 0.596679, Final residual = 4.26971e-08, No Iterations 2
GAMG:  Solving for p_rgh, Initial residual = 0.0095479, Final residual = 0.000168048, No Iterations 1
time step continuity errors : sum local = 0.000184286, global = -0.00013618, cumulative = -0.000719823
GAMG:  Solving for p_rgh, Initial residual = 0.00167575, Final residual = 7.29195e-08, No Iterations 8
time step continuity errors : sum local = 7.55662e-08, global = 6.19629e-08, cumulative = -0.000719761
ExecutionTime = 0.127603 s  ClockTime = 0 s

Courant Number mean: 0.0108497 max: 0.144265
Interface Courant Number mean: 0.00437713 max: 0.142407
Diffusion number maximum: 4.52716
deltaT = 8.32041e-05
Time = 0.0017628s

smoothSolver:  Solving for alpha.water, Initial residual = 0.0024888, Final residual = 1.45598e-09, No Iterations 2
Phase-1 volume fraction = 0.75  Min(alpha.water) = 0  Max(alpha.water) = 1
MULES: Correcting alpha.water
Phase-1 volume fraction = 0.75  Min(alpha.water) = 0  Max(alpha.water) = 1
DILUPBiCGStab:  Solving for T, Initial residual = 0.00125944, Final residual = 5.14282e-08, No Iterations 1
min/max(T) = 300 , 310
DILUPBiCGStab:  Solving for Ux, Initial residual = 0.331015, Final residual = 1.33961e-07, No Iterations 2
DILUPBiCGStab:  Solving for Uy, Initial residual = 0.802106, Final residual = 2.9041e-07, No Iterations 2
GAMG:  Solving for p_rgh, Initial residual = 0.091879, Final residual = 0.000828583, No Iterations 1
time step continuity errors : sum local = 0.00092346, global = 1.41235e-05, cumulative = -0.000705638
GAMG:  Solving for p_rgh, Initial residual = 0.0160928, Final residual = 9.32278e-08, No Iterations 8
time step continuity errors : sum local = 1.01283e-07, global = 1.01283e-07, cumulative = -0.000705537
ExecutionTime = 0.130812 s  ClockTime = 0 s

Courant Number mean: 0.0410578 max: 0.51511
Interface Courant Number mean: 0.0171469 max: 0.51511
Diffusion number maximum: 5.16097
deltaT = 3.23027e-05
Time = 0.0017951s

smoothSolver:  Solving for alpha.water, Initial residual = 0.00350385, Final residual = 3.05573e-09, No Iterations 2
Phase-1 volume fraction = 0.75  Min(alpha.water) = 0  Max(alpha.water) = 1
MULES: Correcting alpha.water
Phase-1 volume fraction = 0.75  Min(alpha.water) = 0  Max(alpha.water) = 1
DILUPBiCGStab:  Solving for T, Initial residual = 0.000484328, Final residual = 3.04841e-09, No Iterations 1
min/max(T) = 300 , 310
DILUPBiCGStab:  Solving for Ux, Initial residual = 0.182096, Final residual = 5.45303e-07, No Iterations 1
DILUPBiCGStab:  Solving for Uy, Initial residual = 0.363614, Final residual = 8.28664e-08, No Iterations 2
GAMG:  Solving for p_rgh, Initial residual = 0.117287, Final residual = 0.00023554, No Iterations 1
time step continuity errors : sum local = 5.20538e-05, global = 1.8299e-06, cumulative = -0.000703707
GAMG:  Solving for p_rgh, Initial residual = 0.0138413, Final residual = 6.46092e-08, No Iterations 10
time step continuity errors : sum local = 1.86192e-08, global = -1.67786e-08, cumulative = -0.000703723
ExecutionTime = 0.134055 s  ClockTime = 0 s

Courant Number mean: 0.00690099 max: 0.0741321
Interface Courant Number mean: 0.00233982 max: 0.0739617
Diffusion number maximum: 2.00367
deltaT = 3.87024e-05
Time = 0.0018338s

smoothSolver:  Solving for alpha.water, Initial residual = 0.0014874, Final residual = 1.02132e-10, No Iterations 2
Phase-1 volume fraction = 0.75  Min(alpha.water) = 0  Max(alpha.water) = 1
MULES: Correcting alpha.water
Phase-1 volume fraction = 0.75  Min(alpha.water) = 0  Max(alpha.water) = 1
DILUPBiCGStab:  Solving for T, Initial residual = 0.000577957, Final residual = 5.21127e-09, No Iterations 1
min/max(T) = 300 , 310
DILUPBiCGStab:  Solving for Ux, Initial residual = 0.473304, Final residual = 7.52286e-07, No Iterations 1
DILUPBiCGStab:  Solving for Uy, Initial residual = 0.777155, Final residual = 1.52301e-07, No Iterations 2
GAMG:  Solving for p_rgh, Initial residual = 0.0312657, Final residual = 0.000325108, No Iterations 1
time step continuity errors : sum local = 0.000225904, global = 3.06039e-06, cumulative = -0.000700663
GAMG:  Solving for p_rgh, Initial residual = 0.00363455, Final residual = 9.12167e-08, No Iterations 9
time step continuity errors : sum local = 4.86145e-08, global = 4.64369e-08, cumulative = -0.000700617
ExecutionTime = 0.137085 s  ClockTime = 0 s

Courant Number mean: 0.0114869 max: 0.172032
Interface Courant Number mean: 0.00524502 max: 0.172032
Diffusion number maximum: 2.40062
deltaT = 4.298e-05
Time = 0.00187678s

smoothSolver:  Solving for alpha.water, Initial residual = 0.00291506, Final residual = 2.24954e-09, No Iterations 2
Phase-1 volume fraction = 0.75  Min(alpha.water) = 0  Max(alpha.water) = 1
MULES: Correcting alpha.water
Phase-1 volume fraction = 0.75  Min(alpha.water) = 0  Max(alpha.water) = 1
DILUPBiCGStab:  Solving for T, Initial residual = 0.000638836, Final residual = 7.09221e-09, No Iterations 1
min/max(T) = 300 , 310
DILUPBiCGStab:  Solving for Ux, Initial residual = 0.515547, Final residual = 3.99192e-08, No Iterations 2
DILUPBiCGStab:  Solving for Uy, Initial residual = 0.552093, Final residual = 2.59103e-07, No Iterations 2
GAMG:  Solving for p_rgh, Initial residual = 0.427661, Final residual = 0.00181804, No Iterations 1
time step continuity errors : sum local = 0.000165526, global = -1.33117e-05, cumulative = -0.000713928
GAMG:  Solving for p_rgh, Initial residual = 0.0238723, Final residual = 7.60479e-08, No Iterations 11
time step continuity errors : sum local = 1.71808e-08, global = -1.62402e-08, cumulative = -0.000713945
ExecutionTime = 0.140527 s  ClockTime = 0 s

Courant Number mean: 0.00935761 max: 0.104344
Interface Courant Number mean: 0.00357321 max: 0.103493
Diffusion number maximum: 2.66595
deltaT = 5.10894e-05
Time = 0.00192787s

smoothSolver:  Solving for alpha.water, Initial residual = 0.0021812, Final residual = 5.08317e-10, No Iterations 2
Phase-1 volume fraction = 0.75  Min(alpha.water) = 0  Max(alpha.water) = 1
MULES: Correcting alpha.water
Phase-1 volume fraction = 0.75  Min(alpha.water) = 0  Max(alpha.water) = 1
DILUPBiCGStab:  Solving for T, Initial residual = 0.0007553, Final residual = 1.18121e-08, No Iterations 1
min/max(T) = 300 , 310
DILUPBiCGStab:  Solving for Ux, Initial residual = 0.105953, Final residual = 5.60045e-07, No Iterations 1
DILUPBiCGStab:  Solving for Uy, Initial residual = 0.664942, Final residual = 2.73987e-08, No Iterations 2
GAMG:  Solving for p_rgh, Initial residual = 0.0554335, Final residual = 0.00050862, No Iterations 1
time step continuity errors : sum local = 0.000436927, global = -4.22681e-05, cumulative = -0.000756213
GAMG:  Solving for p_rgh, Initial residual = 0.00787687, Final residual = 5.64956e-08, No Iterations 9
time step continuity errors : sum local = 4.37458e-08, global = 4.31778e-08, cumulative = -0.00075617
ExecutionTime = 0.14358 s  ClockTime = 0 s

Courant Number mean: 0.0126024 max: 0.153344
Interface Courant Number mean: 0.00541758 max: 0.153344
Diffusion number maximum: 3.16897
deltaT = 5.7658e-05
Time = 0.00198553s

smoothSolver:  Solving for alpha.water, Initial residual = 0.00308011, Final residual = 2.13116e-09, No Iterations 2
Phase-1 volume fraction = 0.75  Min(alpha.water) = 0  Max(alpha.water) = 1
MULES: Correcting alpha.water
Phase-1 volume fraction = 0.75  Min(alpha.water) = 0  Max(alpha.water) = 1
DILUPBiCGStab:  Solving for T, Initial residual = 0.000847183, Final residual = 1.68407e-08, No Iterations 1
min/max(T) = 300 , 310
DILUPBiCGStab:  Solving for Ux, Initial residual = 0.491031, Final residual = 8.56037e-08, No Iterations 2
DILUPBiCGStab:  Solving for Uy, Initial residual = 0.706653, Final residual = 3.60005e-08, No Iterations 2
GAMG:  Solving for p_rgh, Initial residual = 0.12142, Final residual = 0.000302087, No Iterations 1
time step continuity errors : sum local = 0.000167417, global = 5.64664e-05, cumulative = -0.000699703
GAMG:  Solving for p_rgh, Initial residual = 0.0156561, Final residual = 8.10974e-08, No Iterations 9
time step continuity errors : sum local = 5.04965e-08, global = -3.98256e-08, cumulative = -0.000699743
ExecutionTime = 0.146985 s  ClockTime = 0 s

Courant Number mean: 0.0037491 max: 0.0560723
Interface Courant Number mean: 0.00137492 max: 0.0546427
Diffusion number maximum: 3.5764
deltaT = 6.90902e-05
Time = 0.00205462s

smoothSolver:  Solving for alpha.water, Initial residual = 0.000802063, Final residual = 5.0158e-12, No Iterations 2
Phase-1 volume fraction = 0.75  Min(alpha.water) = 0  Max(alpha.water) = 1
MULES: Correcting alpha.water
Phase-1 volume fraction = 0.75  Min(alpha.water) = 0  Max(alpha.water) = 1
DILUPBiCGStab:  Solving for T, Initial residual = 0.00100796, Final residual = 2.86529e-08, No Iterations 1
min/max(T) = 300 , 310
DILUPBiCGStab:  Solving for Ux, Initial residual = 0.619914, Final residual = 1.35439e-07, No Iterations 2
DILUPBiCGStab:  Solving for Uy, Initial residual = 0.559787, Final residual = 8.46234e-07, No Iterations 2
GAMG:  Solving for p_rgh, Initial residual = 0.0311302, Final residual = 0.000112417, No Iterations 1
time step continuity errors : sum local = 0.000120011, global = -7.38913e-05, cumulative = -0.000773634
GAMG:  Solving for p_rgh, Initial residual = 0.00367072, Final residual = 9.75913e-08, No Iterations 7
time step continuity errors : sum local = 9.93995e-08, global = 7.09007e-08, cumulative = -0.000773563
ExecutionTime = 0.149915 s  ClockTime = 0 s

Courant Number mean: 0.00556749 max: 0.089467
Interface Courant Number mean: 0.00204175 max: 0.0824073
Diffusion number maximum: 4.4926
deltaT = 8.27644e-05
Time = 0.00213739s

smoothSolver:  Solving for alpha.water, Initial residual = 0.00123942, Final residual = 1.9686e-11, No Iterations 2
Phase-1 volume fraction = 0.75  Min(alpha.water) = 0  Max(alpha.water) = 1
MULES: Correcting alpha.water
Phase-1 volume fraction = 0.75  Min(alpha.water) = 0  Max(alpha.water) = 1
DILUPBiCGStab:  Solving for T, Initial residual = 0.00119737, Final residual = 4.86099e-08, No Iterations 1
min/max(T) = 300 , 310
DILUPBiCGStab:  Solving for Ux, Initial residual = 0.265989, Final residual = 1.98726e-07, No Iterations 2
DILUPBiCGStab:  Solving for Uy, Initial residual = 0.73033, Final residual = 1.64293e-07, No Iterations 2
GAMG:  Solving for p_rgh, Initial residual = 0.0506399, Final residual = 0.000247425, No Iterations 1
time step continuity errors : sum local = 0.000295736, global = 5.27745e-05, cumulative = -0.000720789
GAMG:  Solving for p_rgh, Initial residual = 0.00729853, Final residual = 9.36236e-08, No Iterations 7
time step continuity errors : sum local = 1.09313e-07, global = 1.09313e-07, cumulative = -0.00072068
ExecutionTime = 0.153153 s  ClockTime = 0 s

Courant Number mean: 0.0241748 max: 0.371059
Interface Courant Number mean: 0.00990594 max: 0.371059
Diffusion number maximum: 5.36585
deltaT = 4.44215e-05
Time = 0.00218181s

smoothSolver:  Solving for alpha.water, Initial residual = 0.00259664, Final residual = 1.86229e-09, No Iterations 2
Phase-1 volume fraction = 0.75  Min(alpha.water) = 0  Max(alpha.water) = 1
MULES: Correcting alpha.water
Phase-1 volume fraction = 0.75  Min(alpha.water) = 0  Max(alpha.water) = 1
DILUPBiCGStab:  Solving for T, Initial residual = 0.000636497, Final residual = 7.57074e-09, No Iterations 1
min/max(T) = 300 , 310
DILUPBiCGStab:  Solving for Ux, Initial residual = 0.229236, Final residual = 3.17341e-08, No Iterations 2
DILUPBiCGStab:  Solving for Uy, Initial residual = 0.598631, Final residual = 3.6188e-08, No Iterations 2
GAMG:  Solving for p_rgh, Initial residual = 0.0934145, Final residual = 0.000272569, No Iterations 1
time step continuity errors : sum local = 0.000119723, global = -2.25995e-05, cumulative = -0.000743279
GAMG:  Solving for p_rgh, Initial residual = 0.0134591, Final residual = 8.97308e-08, No Iterations 8
time step continuity errors : sum local = 4.17875e-08, global = -2.34276e-08, cumulative = -0.000743302
ExecutionTime = 0.15619 s  ClockTime = 0 s

Courant Number mean: 0.00335869 max: 0.0517873
Interface Courant Number mean: 0.00128332 max: 0.0517873
Diffusion number maximum: 2.75537
deltaT = 5.3185e-05
Time = 0.00223499s

smoothSolver:  Solving for alpha.water, Initial residual = 0.000700134, Final residual = 1.4015e-11, No Iterations 2
Phase-1 volume fraction = 0.75  Min(alpha.water) = 0  Max(alpha.water) = 1
MULES: Correcting alpha.water
Phase-1 volume fraction = 0.75  Min(alpha.water) = 0  Max(alpha.water) = 1
DILUPBiCGStab:  Solving for T, Initial residual = 0.000757777, Final residual = 1.28812e-08, No Iterations 1
min/max(T) = 300 , 310
DILUPBiCGStab:  Solving for Ux, Initial residual = 0.777943, Final residual = 4.84693e-08, No Iterations 2
DILUPBiCGStab:  Solving for Uy, Initial residual = 0.648997, Final residual = 3.0765e-07, No Iterations 2
GAMG:  Solving for p_rgh, Initial residual = 0.0319643, Final residual = 0.000169678, No Iterations 1
time step continuity errors : sum local = 0.000114011, global = 3.05534e-05, cumulative = -0.000712749
GAMG:  Solving for p_rgh, Initial residual = 0.00341806, Final residual = 9.77951e-08, No Iterations 7
time step continuity errors : sum local = 6.17396e-08, global = 6.17375e-08, cumulative = -0.000712687
ExecutionTime = 0.15927 s  ClockTime = 0 s

Courant Number mean: 0.0107862 max: 0.178872
Interface Courant Number mean: 0.00436703 max: 0.178872
Diffusion number maximum: 3.58854
deltaT = 5.88258e-05
Time = 0.00229382s

smoothSolver:  Solving for alpha.water, Initial residual = 0.00237214, Final residual = 2.01149e-09, No Iterations 2
Phase-1 volume fraction = 0.75  Min(alpha.water) = 0  Max(alpha.water) = 1
MULES: Correcting alpha.water
Phase-1 volume fraction = 0.75  Min(alpha.water) = 0  Max(alpha.water) = 1
DILUPBiCGStab:  Solving for T, Initial residual = 0.000832573, Final residual = 1.72768e-08, No Iterations 1
min/max(T) = 300 , 310
DILUPBiCGStab:  Solving for Ux, Initial residual = 0.318324, Final residual = 6.42547e-08, No Iterations 2
DILUPBiCGStab:  Solving for Uy, Initial residual = 0.691977, Final residual = 8.14878e-08, No Iterations 2
GAMG:  Solving for p_rgh, Initial residual = 0.0918332, Final residual = 0.000526383, No Iterations 1
time step continuity errors : sum local = 0.000354849, global = -8.39831e-05, cumulative = -0.00079667
GAMG:  Solving for p_rgh, Initial residual = 0.014738, Final residual = 7.5407e-08, No Iterations 8
time step continuity errors : sum local = 5.19052e-08, global = -2.36393e-08, cumulative = -0.000796694
ExecutionTime = 0.162282 s  ClockTime = 0 s

Courant Number mean: 0.0132297 max: 0.198278
Interface Courant Number mean: 0.00531572 max: 0.198278
Diffusion number maximum: 3.78045
deltaT = 5.92783e-05
Time = 0.0023531s

smoothSolver:  Solving for alpha.water, Initial residual = 0.00259907, Final residual = 2.48912e-09, No Iterations 2
Phase-1 volume fraction = 0.75  Min(alpha.water) = 0  Max(alpha.water) = 1
MULES: Correcting alpha.water
Phase-1 volume fraction = 0.75  Min(alpha.water) = 0  Max(alpha.water) = 1
DILUPBiCGStab:  Solving for T, Initial residual = 0.000832756, Final residual = 1.75557e-08, No Iterations 1
min/max(T) = 300 , 310
DILUPBiCGStab:  Solving for Ux, Initial residual = 0.452455, Final residual = 1.03171e-07, No Iterations 2
DILUPBiCGStab:  Solving for Uy, Initial residual = 0.694682, Final residual = 4.70626e-08, No Iterations 2
GAMG:  Solving for p_rgh, Initial residual = 0.0924314, Final residual = 0.000159872, No Iterations 1
time step continuity errors : sum local = 0.000112147, global = 6.71035e-05, cumulative = -0.000729591
GAMG:  Solving for p_rgh, Initial residual = 0.0118927, Final residual = 8.3578e-08, No Iterations 8
time step continuity errors : sum local = 6.05345e-08, global = -2.81136e-08, cumulative = -0.000729619
ExecutionTime = 0.165494 s  ClockTime = 0 s

Courant Number mean: 0.00683184 max: 0.114848
Interface Courant Number mean: 0.00247988 max: 0.106919
Diffusion number maximum: 3.67691
deltaT = 7.01551e-05
Time = 0.00242325s

smoothSolver:  Solving for alpha.water, Initial residual = 0.00139925, Final residual = 2.94428e-10, No Iterations 2
Phase-1 volume fraction = 0.75  Min(alpha.water) = 0  Max(alpha.water) = 1
MULES: Correcting alpha.water
Phase-1 volume fraction = 0.75  Min(alpha.water) = 0  Max(alpha.water) = 1
DILUPBiCGStab:  Solving for T, Initial residual = 0.00097814, Final residual = 2.87816e-08, No Iterations 1
min/max(T) = 300 , 310
DILUPBiCGStab:  Solving for Ux, Initial residual = 0.559674, Final residual = 1.10346e-07, No Iterations 2
DILUPBiCGStab:  Solving for Uy, Initial residual = 0.654304, Final residual = 6.85505e-08, No Iterations 2
GAMG:  Solving for p_rgh, Initial residual = 0.0541922, Final residual = 0.000139785, No Iterations 1
time step continuity errors : sum local = 0.000141026, global = -7.73149e-05, cumulative = -0.000806934
GAMG:  Solving for p_rgh, Initial residual = 0.00685345, Final residual = 8.80954e-08, No Iterations 6
time step continuity errors : sum local = 8.54613e-08, global = 4.45561e-08, cumulative = -0.000806889
ExecutionTime = 0.168868 s  ClockTime = 0 s

Courant Number mean: 0.00725253 max: 0.123395
Interface Courant Number mean: 0.00243579 max: 0.120814
Diffusion number maximum: 4.5378
deltaT = 8.14704e-05
Time = 0.00250472s

smoothSolver:  Solving for alpha.water, Initial residual = 0.0012786, Final residual = 2.76148e-11, No Iterations 2
Phase-1 volume fraction = 0.75  Min(alpha.water) = 0  Max(alpha.water) = 1
MULES: Correcting alpha.water
Phase-1 volume fraction = 0.75  Min(alpha.water) = 0  Max(alpha.water) = 1
DILUPBiCGStab:  Solving for T, Initial residual = 0.00112585, Final residual = 4.45014e-08, No Iterations 1
min/max(T) = 300 , 310
DILUPBiCGStab:  Solving for Ux, Initial residual = 0.39764, Final residual = 2.04909e-07, No Iterations 2
DILUPBiCGStab:  Solving for Uy, Initial residual = 0.692477, Final residual = 1.11514e-07, No Iterations 2
GAMG:  Solving for p_rgh, Initial residual = 0.0518866, Final residual = 0.000173774, No Iterations 1
time step continuity errors : sum local = 0.000197958, global = 7.14747e-05, cumulative = -0.000735414
GAMG:  Solving for p_rgh, Initial residual = 0.00757892, Final residual = 8.22579e-08, No Iterations 7
time step continuity errors : sum local = 9.19313e-08, global = 9.19313e-08, cumulative = -0.000735322
ExecutionTime = 0.172336 s  ClockTime = 0 s

Courant Number mean: 0.0178633 max: 0.324269
Interface Courant Number mean: 0.00703515 max: 0.324269
Diffusion number maximum: 5.20515
deltaT = 4.99685e-05
Time = 0.00255469s

smoothSolver:  Solving for alpha.water, Initial residual = 0.0020692, Final residual = 1.89493e-10, No Iterations 2
Phase-1 volume fraction = 0.75  Min(alpha.water) = 0  Max(alpha.water) = 1
MULES: Correcting alpha.water
Phase-1 volume fraction = 0.75  Min(alpha.water) = 0  Max(alpha.water) = 1
DILUPBiCGStab:  Solving for T, Initial residual = 0.000683461, Final residual = 1.03111e-08, No Iterations 1
min/max(T) = 300 , 310
DILUPBiCGStab:  Solving for Ux, Initial residual = 0.252998, Final residual = 3.93308e-08, No Iterations 2
DILUPBiCGStab:  Solving for Uy, Initial residual = 0.581595, Final residual = 4.54197e-08, No Iterations 2
GAMG:  Solving for p_rgh, Initial residual = 0.0785125, Final residual = 0.000345684, No Iterations 1
time step continuity errors : sum local = 0.000181183, global = -5.10523e-05, cumulative = -0.000786375
GAMG:  Solving for p_rgh, Initial residual = 0.0117212, Final residual = 4.75236e-08, No Iterations 8
time step continuity errors : sum local = 2.56897e-08, global = -2.0607e-08, cumulative = -0.000786395
ExecutionTime = 0.175479 s  ClockTime = 0 s

Courant Number mean: 0.00575332 max: 0.0929296
Interface Courant Number mean: 0.0021137 max: 0.0896384
Diffusion number maximum: 3.09944
deltaT = 5.95625e-05
Time = 0.00261425s

smoothSolver:  Solving for alpha.water, Initial residual = 0.00114767, Final residual = 2.51644e-11, No Iterations 2
Phase-1 volume fraction = 0.75  Min(alpha.water) = 0  Max(alpha.water) = 1
MULES: Correcting alpha.water
Phase-1 volume fraction = 0.75  Min(alpha.water) = 0  Max(alpha.water) = 1
DILUPBiCGStab:  Solving for T, Initial residual = 0.00080942, Final residual = 1.72813e-08, No Iterations 1
min/max(T) = 300 , 310
DILUPBiCGStab:  Solving for Ux, Initial residual = 0.589371, Final residual = 9.76945e-08, No Iterations 2
DILUPBiCGStab:  Solving for Uy, Initial residual = 0.549479, Final residual = 6.33441e-07, No Iterations 2
GAMG:  Solving for p_rgh, Initial residual = 0.049583, Final residual = 0.000231501, No Iterations 1
time step continuity errors : sum local = 0.000165322, global = 6.93967e-05, cumulative = -0.000716999
GAMG:  Solving for p_rgh, Initial residual = 0.00541237, Final residual = 6.45349e-08, No Iterations 7
time step continuity errors : sum local = 4.51111e-08, global = 6.31341e-09, cumulative = -0.000716992
ExecutionTime = 0.178417 s  ClockTime = 0 s

Courant Number mean: 0.0078547 max: 0.116744
Interface Courant Number mean: 0.00271051 max: 0.116744
Diffusion number maximum: 3.86279
deltaT = 6.96769e-05
Time = 0.00268393s

smoothSolver:  Solving for alpha.water, Initial residual = 0.00146648, Final residual = 5.78839e-11, No Iterations 2
Phase-1 volume fraction = 0.75  Min(alpha.water) = 0  Max(alpha.water) = 1
MULES: Correcting alpha.water
Phase-1 volume fraction = 0.75  Min(alpha.water) = 0  Max(alpha.water) = 1
DILUPBiCGStab:  Solving for T, Initial residual = 0.000939658, Final residual = 2.7351e-08, No Iterations 1
min/max(T) = 300 , 310
DILUPBiCGStab:  Solving for Ux, Initial residual = 0.295919, Final residual = 1.84487e-07, No Iterations 2
DILUPBiCGStab:  Solving for Uy, Initial residual = 0.663631, Final residual = 1.09367e-07, No Iterations 2
GAMG:  Solving for p_rgh, Initial residual = 0.0614154, Final residual = 0.000265486, No Iterations 1
time step continuity errors : sum local = 0.000245538, global = -9.60633e-05, cumulative = -0.000813056
GAMG:  Solving for p_rgh, Initial residual = 0.00913761, Final residual = 8.77123e-08, No Iterations 7
time step continuity errors : sum local = 7.94839e-08, global = 7.94839e-08, cumulative = -0.000812976
ExecutionTime = 0.181762 s  ClockTime = 0 s

Courant Number mean: 0.0158766 max: 0.277484
Interface Courant Number mean: 0.00607476 max: 0.277484
Diffusion number maximum: 4.48208
deltaT = 5.01101e-05
Time = 0.00273404s

smoothSolver:  Solving for alpha.water, Initial residual = 0.00201206, Final residual = 9.15202e-10, No Iterations 2
Phase-1 volume fraction = 0.75  Min(alpha.water) = 0  Max(alpha.water) = 1
MULES: Correcting alpha.water
Phase-1 volume fraction = 0.75  Min(alpha.water) = 0  Max(alpha.water) = 1
DILUPBiCGStab:  Solving for T, Initial residual = 0.000669865, Final residual = 1.01868e-08, No Iterations 1
min/max(T) = 300 , 310
DILUPBiCGStab:  Solving for Ux, Initial residual = 0.32587, Final residual = 3.95971e-08, No Iterations 2
DILUPBiCGStab:  Solving for Uy, Initial residual = 0.574755, Final residual = 7.34566e-07, No Iterations 2
GAMG:  Solving for p_rgh, Initial residual = 0.0884349, Final residual = 0.000246265, No Iterations 1
time step continuity errors : sum local = 0.000124941, global = 2.44628e-05, cumulative = -0.000788513
GAMG:  Solving for p_rgh, Initial residual = 0.0127724, Final residual = 8.43433e-08, No Iterations 8
time step continuity errors : sum local = 4.47806e-08, global = -3.00846e-08, cumulative = -0.000788543
ExecutionTime = 0.184767 s  ClockTime = 0 s

Courant Number mean: 0.0031989 max: 0.0523641
Interface Courant Number mean: 0.000909322 max: 0.0389495
Diffusion number maximum: 3.10822
deltaT = 6.00493e-05
Time = 0.00279409s

smoothSolver:  Solving for alpha.water, Initial residual = 0.000435436, Final residual = 6.10683e-13, No Iterations 2
Phase-1 volume fraction = 0.75  Min(alpha.water) = 0  Max(alpha.water) = 1
MULES: Correcting alpha.water
Phase-1 volume fraction = 0.75  Min(alpha.water) = 0  Max(alpha.water) = 1
DILUPBiCGStab:  Solving for T, Initial residual = 0.000797533, Final residual = 1.73347e-08, No Iterations 1
min/max(T) = 300 , 310
DILUPBiCGStab:  Solving for Ux, Initial residual = 0.694998, Final residual = 8.67447e-08, No Iterations 2
DILUPBiCGStab:  Solving for Uy, Initial residual = 0.587651, Final residual = 3.83952e-07, No Iterations 2
GAMG:  Solving for p_rgh, Initial residual = 0.0226154, Final residual = 0.000123694, No Iterations 1
time step continuity errors : sum local = 9.55617e-05, global = -4.48527e-06, cumulative = -0.000793029
GAMG:  Solving for p_rgh, Initial residual = 0.00274149, Final residual = 8.07306e-08, No Iterations 7
time step continuity errors : sum local = 5.94098e-08, global = 5.91177e-08, cumulative = -0.00079297
ExecutionTime = 0.188291 s  ClockTime = 0 s

Courant Number mean: 0.0106807 max: 0.163211
Interface Courant Number mean: 0.00398699 max: 0.163211
Diffusion number maximum: 3.93605
deltaT = 6.7345e-05
Time = 0.00286143s

smoothSolver:  Solving for alpha.water, Initial residual = 0.00204213, Final residual = 7.97808e-10, No Iterations 2
Phase-1 volume fraction = 0.75  Min(alpha.water) = 0  Max(alpha.water) = 1
MULES: Correcting alpha.water
Phase-1 volume fraction = 0.75  Min(alpha.water) = 0  Max(alpha.water) = 1
DILUPBiCGStab:  Solving for T, Initial residual = 0.000887689, Final residual = 2.42108e-08, No Iterations 1
min/max(T) = 300 , 310
DILUPBiCGStab:  Solving for Ux, Initial residual = 0.330476, Final residual = 7.74074e-08, No Iterations 2
DILUPBiCGStab:  Solving for Uy, Initial residual = 0.690309, Final residual = 1.12809e-07, No Iterations 2
GAMG:  Solving for p_rgh, Initial residual = 0.0871283, Final residual = 0.000400464, No Iterations 1
time step continuity errors : sum local = 0.000323949, global = -4.28095e-05, cumulative = -0.000835779
GAMG:  Solving for p_rgh, Initial residual = 0.0145604, Final residual = 7.07586e-08, No Iterations 8
time step continuity errors : sum local = 5.74747e-08, global = 5.60749e-08, cumulative = -0.000835723
ExecutionTime = 0.191601 s  ClockTime = 0 s

Courant Number mean: 0.0180064 max: 0.301394
Interface Courant Number mean: 0.00671174 max: 0.301394
Diffusion number maximum: 4.22731
deltaT = 4.4616e-05
Time = 0.00290605s

smoothSolver:  Solving for alpha.water, Initial residual = 0.0020442, Final residual = 1.08906e-09, No Iterations 2
Phase-1 volume fraction = 0.75  Min(alpha.water) = 0  Max(alpha.water) = 1
MULES: Correcting alpha.water
Phase-1 volume fraction = 0.75  Min(alpha.water) = 0  Max(alpha.water) = 1
DILUPBiCGStab:  Solving for T, Initial residual = 0.00058316, Final residual = 7.05575e-09, No Iterations 1
min/max(T) = 300 , 310
DILUPBiCGStab:  Solving for Ux, Initial residual = 0.321896, Final residual = 2.43945e-08, No Iterations 2
DILUPBiCGStab:  Solving for Uy, Initial residual = 0.482279, Final residual = 3.46172e-07, No Iterations 2
GAMG:  Solving for p_rgh, Initial residual = 0.0886075, Final residual = 0.000216334, No Iterations 1
time step continuity errors : sum local = 9.17656e-05, global = 1.07832e-05, cumulative = -0.00082494
GAMG:  Solving for p_rgh, Initial residual = 0.0117846, Final residual = 5.09215e-08, No Iterations 9
time step continuity errors : sum local = 2.28682e-08, global = -1.94986e-08, cumulative = -0.000824959
ExecutionTime = 0.195384 s  ClockTime = 0 s

Courant Number mean: 0.0039392 max: 0.0577285
Interface Courant Number mean: 0.00115941 max: 0.0459642
Diffusion number maximum: 2.76744
deltaT = 5.3338e-05
Time = 0.00295939s

smoothSolver:  Solving for alpha.water, Initial residual = 0.000665949, Final residual = 2.76112e-12, No Iterations 2
Phase-1 volume fraction = 0.75  Min(alpha.water) = 0  Max(alpha.water) = 1
MULES: Correcting alpha.water
Phase-1 volume fraction = 0.75  Min(alpha.water) = 0  Max(alpha.water) = 1
DILUPBiCGStab:  Solving for T, Initial residual = 0.000693227, Final residual = 1.19363e-08, No Iterations 1
min/max(T) = 300 , 310
DILUPBiCGStab:  Solving for Ux, Initial residual = 0.620015, Final residual = 5.80645e-08, No Iterations 2
DILUPBiCGStab:  Solving for Uy, Initial residual = 0.723152, Final residual = 2.33813e-07, No Iterations 2
GAMG:  Solving for p_rgh, Initial residual = 0.0239018, Final residual = 0.000134918, No Iterations 1
time step continuity errors : sum local = 0.000101204, global = -1.00524e-05, cumulative = -0.000835012
GAMG:  Solving for p_rgh, Initial residual = 0.00307762, Final residual = 7.70693e-08, No Iterations 8
time step continuity errors : sum local = 5.35096e-08, global = 5.06725e-08, cumulative = -0.000834961
ExecutionTime = 0.198478 s  ClockTime = 0 s

Courant Number mean: 0.0131506 max: 0.219008
Interface Courant Number mean: 0.00510764 max: 0.219008
Diffusion number maximum: 3.30844
deltaT = 4.85559e-05
Time = 0.00300794s

smoothSolver:  Solving for alpha.water, Initial residual = 0.00209017, Final residual = 7.85436e-10, No Iterations 2
Phase-1 volume fraction = 0.75  Min(alpha.water) = 0  Max(alpha.water) = 1
MULES: Correcting alpha.water
Phase-1 volume fraction = 0.75  Min(alpha.water) = 0  Max(alpha.water) = 1
DILUPBiCGStab:  Solving for T, Initial residual = 0.000626936, Final residual = 8.9757e-09, No Iterations 1
min/max(T) = 300 , 310
DILUPBiCGStab:  Solving for Ux, Initial residual = 0.347167, Final residual = 3.46249e-08, No Iterations 2
DILUPBiCGStab:  Solving for Uy, Initial residual = 0.573297, Final residual = 4.99206e-07, No Iterations 2
GAMG:  Solving for p_rgh, Initial residual = 0.096172, Final residual = 0.00020272, No Iterations 1
time step continuity errors : sum local = 9.05078e-05, global = -9.19972e-07, cumulative = -0.000835881
GAMG:  Solving for p_rgh, Initial residual = 0.0129415, Final residual = 6.0508e-08, No Iterations 9
time step continuity errors : sum local = 2.96313e-08, global = -2.43062e-08, cumulative = -0.000835905
ExecutionTime = 0.201985 s  ClockTime = 0 s

Courant Number mean: 0.00265303 max: 0.0338464
Interface Courant Number mean: 0.000519112 max: 0.0223352
Diffusion number maximum: 3.03922
deltaT = 5.82671e-05
Time = 0.00306621s

smoothSolver:  Solving for alpha.water, Initial residual = 0.000275096, Final residual = 7.48727e-09, No Iterations 1
Phase-1 volume fraction = 0.75  Min(alpha.water) = 0  Max(alpha.water) = 1
MULES: Correcting alpha.water
Phase-1 volume fraction = 0.75  Min(alpha.water) = 0  Max(alpha.water) = 1
DILUPBiCGStab:  Solving for T, Initial residual = 0.000747738, Final residual = 1.53532e-08, No Iterations 1
min/max(T) = 300 , 310
DILUPBiCGStab:  Solving for Ux, Initial residual = 0.633991, Final residual = 5.89152e-08, No Iterations 2
DILUPBiCGStab:  Solving for Uy, Initial residual = 0.63787, Final residual = 2.1809e-07, No Iterations 2
GAMG:  Solving for p_rgh, Initial residual = 0.0112403, Final residual = 5.34029e-05, No Iterations 1
time step continuity errors : sum local = 4.40554e-05, global = 8.93735e-06, cumulative = -0.000826968
GAMG:  Solving for p_rgh, Initial residual = 0.00151, Final residual = 5.61506e-08, No Iterations 8
time step continuity errors : sum local = 4.34947e-08, global = 4.31312e-08, cumulative = -0.000826925
ExecutionTime = 0.204973 s  ClockTime = 0 s

Courant Number mean: 0.0133985 max: 0.213953
Interface Courant Number mean: 0.00503034 max: 0.213953
Diffusion number maximum: 3.67291
deltaT = 5.41702e-05
Time = 0.00312038s

smoothSolver:  Solving for alpha.water, Initial residual = 0.0020611, Final residual = 9.76186e-10, No Iterations 2
Phase-1 volume fraction = 0.75  Min(alpha.water) = 0  Max(alpha.water) = 1
MULES: Correcting alpha.water
Phase-1 volume fraction = 0.75  Min(alpha.water) = 0  Max(alpha.water) = 1
DILUPBiCGStab:  Solving for T, Initial residual = 0.00069023, Final residual = 1.22893e-08, No Iterations 1
min/max(T) = 300 , 310
DILUPBiCGStab:  Solving for Ux, Initial residual = 0.304745, Final residual = 4.96471e-08, No Iterations 2
DILUPBiCGStab:  Solving for Uy, Initial residual = 0.606507, Final residual = 7.74856e-07, No Iterations 2
GAMG:  Solving for p_rgh, Initial residual = 0.0866414, Final residual = 0.000373908, No Iterations 1
time step continuity errors : sum local = 0.000220625, global = -4.74105e-05, cumulative = -0.000874335
GAMG:  Solving for p_rgh, Initial residual = 0.0137696, Final residual = 6.7929e-08, No Iterations 8
time step continuity errors : sum local = 4.21817e-08, global = -3.10718e-08, cumulative = -0.000874366
ExecutionTime = 0.208566 s  ClockTime = 0 s

Courant Number mean: 0.00660703 max: 0.0845999
Interface Courant Number mean: 0.00209033 max: 0.0821109
Diffusion number maximum: 3.36006
deltaT = 6.49021e-05
Time = 0.00318528s

smoothSolver:  Solving for alpha.water, Initial residual = 0.00114723, Final residual = 2.23549e-11, No Iterations 2
Phase-1 volume fraction = 0.75  Min(alpha.water) = 0  Max(alpha.water) = 1
MULES: Correcting alpha.water
Phase-1 volume fraction = 0.75  Min(alpha.water) = 0  Max(alpha.water) = 1
DILUPBiCGStab:  Solving for T, Initial residual = 0.000821448, Final residual = 2.0919e-08, No Iterations 1
min/max(T) = 300 , 310
DILUPBiCGStab:  Solving for Ux, Initial residual = 0.532939, Final residual = 1.11725e-07, No Iterations 2
DILUPBiCGStab:  Solving for Uy, Initial residual = 0.522157, Final residual = 8.01477e-07, No Iterations 2
GAMG:  Solving for p_rgh, Initial residual = 0.0507318, Final residual = 0.000245756, No Iterations 1
time step continuity errors : sum local = 0.000213147, global = 7.89504e-05, cumulative = -0.000795416
GAMG:  Solving for p_rgh, Initial residual = 0.00716141, Final residual = 6.67374e-08, No Iterations 7
time step continuity errors : sum local = 5.57868e-08, global = 1.56831e-08, cumulative = -0.0007954
ExecutionTime = 0.211538 s  ClockTime = 0 s

Courant Number mean: 0.0055465 max: 0.06603
Interface Courant Number mean: 0.00163815 max: 0.06603
Diffusion number maximum: 4.17998
deltaT = 7.744e-05
Time = 0.00326272s

smoothSolver:  Solving for alpha.water, Initial residual = 0.00093131, Final residual = 6.34876e-12, No Iterations 2
Phase-1 volume fraction = 0.75  Min(alpha.water) = 0  Max(alpha.water) = 1
MULES: Correcting alpha.water
Phase-1 volume fraction = 0.75  Min(alpha.water) = 0  Max(alpha.water) = 1
DILUPBiCGStab:  Solving for T, Initial residual = 0.000972406, Final residual = 3.51242e-08, No Iterations 1
min/max(T) = 300 , 310
DILUPBiCGStab:  Solving for Ux, Initial residual = 0.13789, Final residual = 3.88684e-07, No Iterations 2
DILUPBiCGStab:  Solving for Uy, Initial residual = 0.626114, Final residual = 1.23207e-07, No Iterations 2
GAMG:  Solving for p_rgh, Initial residual = 0.0394467, Final residual = 0.000172685, No Iterations 1
time step continuity errors : sum local = 0.000189385, global = -0.000105955, cumulative = -0.000901356
GAMG:  Solving for p_rgh, Initial residual = 0.0057929, Final residual = 6.06111e-08, No Iterations 7
time step continuity errors : sum local = 6.54915e-08, global = 5.90386e-08, cumulative = -0.000901297
ExecutionTime = 0.214867 s  ClockTime = 0 s

Courant Number mean: 0.0191355 max: 0.305448
Interface Courant Number mean: 0.00726255 max: 0.305448
Diffusion number maximum: 4.88638
deltaT = 5.06562e-05
Time = 0.00331338s

smoothSolver:  Solving for alpha.water, Initial residual = 0.00210907, Final residual = 1.71887e-09, No Iterations 2
Phase-1 volume fraction = 0.75  Min(alpha.water) = 0  Max(alpha.water) = 1
MULES: Correcting alpha.water
Phase-1 volume fraction = 0.75  Min(alpha.water) = 0  Max(alpha.water) = 1
DILUPBiCGStab:  Solving for T, Initial residual = 0.000630311, Final residual = 9.87262e-09, No Iterations 1
min/max(T) = 300 , 310
DILUPBiCGStab:  Solving for Ux, Initial residual = 0.249301, Final residual = 3.78013e-08, No Iterations 2
DILUPBiCGStab:  Solving for Uy, Initial residual = 0.565458, Final residual = 7.02055e-07, No Iterations 2
GAMG:  Solving for p_rgh, Initial residual = 0.0883028, Final residual = 0.000334903, No Iterations 1
time step continuity errors : sum local = 0.000185094, global = 1.15509e-05, cumulative = -0.000889746
GAMG:  Solving for p_rgh, Initial residual = 0.0132533, Final residual = 6.55618e-08, No Iterations 8
time step continuity errors : sum local = 3.76244e-08, global = -1.82538e-08, cumulative = -0.000889764
ExecutionTime = 0.217897 s  ClockTime = 0 s

Courant Number mean: 0.00591177 max: 0.0808782
Interface Courant Number mean: 0.00167401 max: 0.0808782
Diffusion number maximum: 3.17705
deltaT = 6.07875e-05
Time = 0.00337417s

smoothSolver:  Solving for alpha.water, Initial residual = 0.000858323, Final residual = 8.44312e-11, No Iterations 2
Phase-1 volume fraction = 0.75  Min(alpha.water) = 0  Max(alpha.water) = 1
MULES: Correcting alpha.water
Phase-1 volume fraction = 0.75  Min(alpha.water) = 0  Max(alpha.water) = 1
DILUPBiCGStab:  Solving for T, Initial residual = 0.000751761, Final residual = 1.69112e-08, No Iterations 1
min/max(T) = 300 , 310.001
DILUPBiCGStab:  Solving for Ux, Initial residual = 0.583024, Final residual = 1.07558e-07, No Iterations 2
DILUPBiCGStab:  Solving for Uy, Initial residual = 0.477084, Final residual = 5.11144e-07, No Iterations 2
GAMG:  Solving for p_rgh, Initial residual = 0.041483, Final residual = 0.000256095, No Iterations 1
time step continuity errors : sum local = 0.000199553, global = 2.57422e-05, cumulative = -0.000864022
GAMG:  Solving for p_rgh, Initial residual = 0.00579619, Final residual = 3.83221e-08, No Iterations 7
time step continuity errors : sum local = 2.88661e-08, global = 7.6763e-09, cumulative = -0.000864014
ExecutionTime = 0.220987 s  ClockTime = 0 s

Courant Number mean: 0.00938806 max: 0.119137
Interface Courant Number mean: 0.00313033 max: 0.119137
Diffusion number maximum: 3.94385
deltaT = 7.04876e-05
Time = 0.00344465s

smoothSolver:  Solving for alpha.water, Initial residual = 0.00168706, Final residual = 5.05602e-10, No Iterations 2
Phase-1 volume fraction = 0.75  Min(alpha.water) = 0  Max(alpha.water) = 1
MULES: Correcting alpha.water
Phase-1 volume fraction = 0.75  Min(alpha.water) = 0  Max(alpha.water) = 1
DILUPBiCGStab:  Solving for T, Initial residual = 0.000865441, Final residual = 2.61282e-08, No Iterations 1
min/max(T) = 300 , 310.001
DILUPBiCGStab:  Solving for Ux, Initial residual = 0.213461, Final residual = 1.3759e-07, No Iterations 2
DILUPBiCGStab:  Solving for Uy, Initial residual = 0.661078, Final residual = 1.1901e-07, No Iterations 2
GAMG:  Solving for p_rgh, Initial residual = 0.0701436, Final residual = 0.000311064, No Iterations 1
time step continuity errors : sum local = 0.000299881, global = -6.68025e-05, cumulative = -0.000930817
GAMG:  Solving for p_rgh, Initial residual = 0.010916, Final residual = 4.91173e-08, No Iterations 8
time step continuity errors : sum local = 4.67151e-08, global = 4.67151e-08, cumulative = -0.00093077
ExecutionTime = 0.223948 s  ClockTime = 0 s

Courant Number mean: 0.0213984 max: 0.324793
Interface Courant Number mean: 0.00793218 max: 0.324793
Diffusion number maximum: 4.38716
deltaT = 4.31273e-05
Time = 0.00348778s

smoothSolver:  Solving for alpha.water, Initial residual = 0.00216555, Final residual = 1.66079e-09, No Iterations 2
Phase-1 volume fraction = 0.75  Min(alpha.water) = 0  Max(alpha.water) = 1
MULES: Correcting alpha.water
Phase-1 volume fraction = 0.75  Min(alpha.water) = 0  Max(alpha.water) = 1
DILUPBiCGStab:  Solving for T, Initial residual = 0.000525251, Final residual = 6.01708e-09, No Iterations 1
min/max(T) = 300 , 310.001
DILUPBiCGStab:  Solving for Ux, Initial residual = 0.273817, Final residual = 2.44917e-08, No Iterations 2
DILUPBiCGStab:  Solving for Uy, Initial residual = 0.475399, Final residual = 3.5338e-07, No Iterations 2
GAMG:  Solving for p_rgh, Initial residual = 0.0933824, Final residual = 0.000282036, No Iterations 1
time step continuity errors : sum local = 0.000114077, global = 5.10182e-06, cumulative = -0.000925668
GAMG:  Solving for p_rgh, Initial residual = 0.0125907, Final residual = 5.29496e-08, No Iterations 9
time step continuity errors : sum local = 2.31153e-08, global = -1.96544e-08, cumulative = -0.000925688
ExecutionTime = 0.226922 s  ClockTime = 0 s

Courant Number mean: 0.0039794 max: 0.0434988
Interface Courant Number mean: 0.00095995 max: 0.0377855
Diffusion number maximum: 2.67509
deltaT = 5.16843e-05
Time = 0.00353947s

smoothSolver:  Solving for alpha.water, Initial residual = 0.000547255, Final residual = 3.00107e-12, No Iterations 2
Phase-1 volume fraction = 0.75  Min(alpha.water) = 0  Max(alpha.water) = 1
MULES: Correcting alpha.water
Phase-1 volume fraction = 0.75  Min(alpha.water) = 0  Max(alpha.water) = 1
DILUPBiCGStab:  Solving for T, Initial residual = 0.000626264, Final residual = 1.02818e-08, No Iterations 1
min/max(T) = 300 , 310.001
DILUPBiCGStab:  Solving for Ux, Initial residual = 0.616731, Final residual = 4.44659e-08, No Iterations 2
DILUPBiCGStab:  Solving for Uy, Initial residual = 0.711253, Final residual = 1.65588e-07, No Iterations 2
GAMG:  Solving for p_rgh, Initial residual = 0.0200112, Final residual = 0.000125351, No Iterations 1
time step continuity errors : sum local = 9.13025e-05, global = 2.14993e-06, cumulative = -0.000923538
GAMG:  Solving for p_rgh, Initial residual = 0.00261674, Final residual = 8.20759e-08, No Iterations 8
time step continuity errors : sum local = 5.46209e-08, global = 5.19727e-08, cumulative = -0.000923486
ExecutionTime = 0.23041 s  ClockTime = 0 s

Courant Number mean: 0.0148006 max: 0.216953
Interface Courant Number mean: 0.00537724 max: 0.216953
Diffusion number maximum: 3.29005
deltaT = 4.75039e-05
Time = 0.00358697s

smoothSolver:  Solving for alpha.water, Initial residual = 0.00219128, Final residual = 1.21065e-09, No Iterations 2
Phase-1 volume fraction = 0.75  Min(alpha.water) = 0  Max(alpha.water) = 1
MULES: Correcting alpha.water
[...]
min/max(T) = 300 , 306.621
DILUPBiCGStab:  Solving for Ux, Initial residual = 0.234365, Final residual = 7.63783e-08, No Iterations 2
DILUPBiCGStab:  Solving for Uy, Initial residual = 0.524213, Final residual = 7.45895e-08, No Iterations 2
GAMG:  Solving for p_rgh, Initial residual = 0.0747339, Final residual = 0.000277096, No Iterations 1
time step continuity errors : sum local = 0.000245531, global = -6.60106e-05, cumulative = -0.0126313
GAMG:  Solving for p_rgh, Initial residual = 0.0114791, Final residual = 9.64333e-08, No Iterations 7
time step continuity errors : sum local = 8.51395e-08, global = 8.51395e-08, cumulative = -0.0126312
ExecutionTime = 5.70951 s  ClockTime = 5 s

Courant Number mean: 0.0180149 max: 0.253056
Interface Courant Number mean: 0.00638591 max: 0.253056
Diffusion number maximum: 4.16791
deltaT = 5.0392e-05
Time = 0.0992441s

smoothSolver:  Solving for alpha.water, Initial residual = 0.00215356, Final residual = 1.28878e-09, No Iterations 2
Phase-1 volume fraction = 0.750001  Min(alpha.water) = 0  Max(alpha.water) = 1
MULES: Correcting alpha.water
Phase-1 volume fraction = 0.750001  Min(alpha.water) = 0  Max(alpha.water) = 1
DILUPBiCGStab:  Solving for T, Initial residual = 0.000199281, Final residual = 9.73474e-10, No Iterations 1
min/max(T) = 300 , 306.619
DILUPBiCGStab:  Solving for Ux, Initial residual = 0.311109, Final residual = 3.68013e-08, No Iterations 2
DILUPBiCGStab:  Solving for Uy, Initial residual = 0.456655, Final residual = 3.96097e-07, No Iterations 2
GAMG:  Solving for p_rgh, Initial residual = 0.0943704, Final residual = 0.000252481, No Iterations 1
time step continuity errors : sum local = 0.000132977, global = 1.17783e-05, cumulative = -0.0126194
GAMG:  Solving for p_rgh, Initial residual = 0.0128517, Final residual = 8.90316e-08, No Iterations 8
time step continuity errors : sum local = 4.90886e-08, global = -3.60096e-08, cumulative = -0.0126195
ExecutionTime = 5.71251 s  ClockTime = 5 s

Courant Number mean: 0.00358386 max: 0.0351157
Interface Courant Number mean: 0.000417075 max: 0.0200142
Diffusion number maximum: 3.12571
deltaT = 5.81446e-05
Time = 0.0993023s

smoothSolver:  Solving for alpha.water, Initial residual = 0.000146953, Final residual = 2.43445e-09, No Iterations 1
Phase-1 volume fraction = 0.750001  Min(alpha.water) = 0  Max(alpha.water) = 1
MULES: Correcting alpha.water
Phase-1 volume fraction = 0.750001  Min(alpha.water) = 0  Max(alpha.water) = 1
DILUPBiCGStab:  Solving for T, Initial residual = 0.000229314, Final residual = 1.25476e-09, No Iterations 1
min/max(T) = 300 , 306.617
DILUPBiCGStab:  Solving for Ux, Initial residual = 0.583248, Final residual = 7.39104e-08, No Iterations 2
DILUPBiCGStab:  Solving for Uy, Initial residual = 0.400176, Final residual = 1.08203e-07, No Iterations 2
GAMG:  Solving for p_rgh, Initial residual = 0.00781556, Final residual = 6.23573e-05, No Iterations 1
time step continuity errors : sum local = 4.97536e-05, global = 2.59493e-06, cumulative = -0.0126169
GAMG:  Solving for p_rgh, Initial residual = 0.00115392, Final residual = 9.44031e-08, No Iterations 7
time step continuity errors : sum local = 7.13749e-08, global = 6.96485e-08, cumulative = -0.0126168
ExecutionTime = 5.71554 s  ClockTime = 5 s

Courant Number mean: 0.013479 max: 0.213212
Interface Courant Number mean: 0.00456954 max: 0.213212
Diffusion number maximum: 3.60658
deltaT = 5.36719e-05
Time = 0.0993559s

smoothSolver:  Solving for alpha.water, Initial residual = 0.00185772, Final residual = 3.89764e-10, No Iterations 2
Phase-1 volume fraction = 0.750001  Min(alpha.water) = 0  Max(alpha.water) = 1
MULES: Correcting alpha.water
Phase-1 volume fraction = 0.750001  Min(alpha.water) = 0  Max(alpha.water) = 1
DILUPBiCGStab:  Solving for T, Initial residual = 0.000212039, Final residual = 1.08866e-09, No Iterations 1
min/max(T) = 300 , 306.615
DILUPBiCGStab:  Solving for Ux, Initial residual = 0.261429, Final residual = 3.5384e-08, No Iterations 2
DILUPBiCGStab:  Solving for Uy, Initial residual = 0.463117, Final residual = 5.20422e-07, No Iterations 2
GAMG:  Solving for p_rgh, Initial residual = 0.0838625, Final residual = 0.000213119, No Iterations 1
time step continuity errors : sum local = 0.000125322, global = -1.5224e-05, cumulative = -0.012632
GAMG:  Solving for p_rgh, Initial residual = 0.0122534, Final residual = 6.91783e-08, No Iterations 8
time step continuity errors : sum local = 4.2103e-08, global = -2.07049e-08, cumulative = -0.0126321
ExecutionTime = 5.71844 s  ClockTime = 5 s

Courant Number mean: 0.00681243 max: 0.0831349
Interface Courant Number mean: 0.0019237 max: 0.0761888
Diffusion number maximum: 3.32915
deltaT = 6.44063e-05
Time = 0.0994203s

smoothSolver:  Solving for alpha.water, Initial residual = 0.00100414, Final residual = 6.29947e-11, No Iterations 2
Phase-1 volume fraction = 0.750001  Min(alpha.water) = 0  Max(alpha.water) = 1
MULES: Correcting alpha.water
Phase-1 volume fraction = 0.750001  Min(alpha.water) = 0  Max(alpha.water) = 1
DILUPBiCGStab:  Solving for T, Initial residual = 0.000253886, Final residual = 1.72092e-09, No Iterations 1
min/max(T) = 300 , 306.612
DILUPBiCGStab:  Solving for Ux, Initial residual = 0.508515, Final residual = 6.92017e-08, No Iterations 2
DILUPBiCGStab:  Solving for Uy, Initial residual = 0.36158, Final residual = 4.54355e-07, No Iterations 2
GAMG:  Solving for p_rgh, Initial residual = 0.0477498, Final residual = 0.000146976, No Iterations 1
time step continuity errors : sum local = 0.000123865, global = 1.97816e-05, cumulative = -0.0126123
GAMG:  Solving for p_rgh, Initial residual = 0.00664999, Final residual = 4.47653e-08, No Iterations 6
time step continuity errors : sum local = 3.68391e-08, global = -2.66932e-08, cumulative = -0.0126123
ExecutionTime = 5.72203 s  ClockTime = 5 s

Courant Number mean: 0.00629543 max: 0.0696254
Interface Courant Number mean: 0.00147542 max: 0.0696254
Diffusion number maximum: 4.00805
deltaT = 7.24571e-05
Time = 0.0994928s

smoothSolver:  Solving for alpha.water, Initial residual = 0.000773308, Final residual = 4.02672e-12, No Iterations 2
Phase-1 volume fraction = 0.750001  Min(alpha.water) = 0  Max(alpha.water) = 1
MULES: Correcting alpha.water
Phase-1 volume fraction = 0.750001  Min(alpha.water) = 0  Max(alpha.water) = 1
DILUPBiCGStab:  Solving for T, Initial residual = 0.000285489, Final residual = 2.44529e-09, No Iterations 1
min/max(T) = 300 , 306.609
DILUPBiCGStab:  Solving for Ux, Initial residual = 0.0821977, Final residual = 1.16543e-07, No Iterations 2
DILUPBiCGStab:  Solving for Uy, Initial residual = 0.430582, Final residual = 6.29006e-07, No Iterations 2
GAMG:  Solving for p_rgh, Initial residual = 0.0341501, Final residual = 0.00013199, No Iterations 1
time step continuity errors : sum local = 0.00013289, global = -3.71422e-05, cumulative = -0.0126494
GAMG:  Solving for p_rgh, Initial residual = 0.0048951, Final residual = 5.35579e-08, No Iterations 7
time step continuity errors : sum local = 5.29924e-08, global = 4.00952e-08, cumulative = -0.0126494
ExecutionTime = 5.72507 s  ClockTime = 5 s

Courant Number mean: 0.0151963 max: 0.234504
Interface Courant Number mean: 0.00534631 max: 0.234504
Diffusion number maximum: 4.49436
deltaT = 5.63555e-05
Time = 0.0995492s

smoothSolver:  Solving for alpha.water, Initial residual = 0.00184362, Final residual = 3.12464e-10, No Iterations 2
Phase-1 volume fraction = 0.750001  Min(alpha.water) = 0  Max(alpha.water) = 1
MULES: Correcting alpha.water
Phase-1 volume fraction = 0.750001  Min(alpha.water) = 0  Max(alpha.water) = 1
DILUPBiCGStab:  Solving for T, Initial residual = 0.000222178, Final residual = 1.24654e-09, No Iterations 1
min/max(T) = 300 , 306.607
DILUPBiCGStab:  Solving for Ux, Initial residual = 0.26407, Final residual = 3.66048e-08, No Iterations 2
DILUPBiCGStab:  Solving for Uy, Initial residual = 0.482538, Final residual = 5.85156e-07, No Iterations 2
GAMG:  Solving for p_rgh, Initial residual = 0.0828159, Final residual = 0.000191803, No Iterations 1
time step continuity errors : sum local = 0.000125285, global = 1.66349e-05, cumulative = -0.0126328
GAMG:  Solving for p_rgh, Initial residual = 0.0119131, Final residual = 5.98794e-08, No Iterations 8
time step continuity errors : sum local = 3.99959e-08, global = -6.30789e-09, cumulative = -0.0126328
ExecutionTime = 5.72845 s  ClockTime = 5 s

Courant Number mean: 0.00919274 max: 0.115683
Interface Courant Number mean: 0.00268941 max: 0.115683
Diffusion number maximum: 3.55493
deltaT = 6.44063e-05
Time = 0.0996136s

smoothSolver:  Solving for alpha.water, Initial residual = 0.0013364, Final residual = 2.17613e-10, No Iterations 2
Phase-1 volume fraction = 0.750001  Min(alpha.water) = 0  Max(alpha.water) = 1
MULES: Correcting alpha.water
Phase-1 volume fraction = 0.750001  Min(alpha.water) = 0  Max(alpha.water) = 1
DILUPBiCGStab:  Solving for T, Initial residual = 0.000253575, Final residual = 1.74966e-09, No Iterations 1
min/max(T) = 300 , 306.605
DILUPBiCGStab:  Solving for Ux, Initial residual = 0.468469, Final residual = 1.29188e-07, No Iterations 2
DILUPBiCGStab:  Solving for Uy, Initial residual = 0.446571, Final residual = 5.36379e-07, No Iterations 2
GAMG:  Solving for p_rgh, Initial residual = 0.0642224, Final residual = 0.000165027, No Iterations 1
time step continuity errors : sum local = 0.00013453, global = -2.16565e-05, cumulative = -0.0126544
GAMG:  Solving for p_rgh, Initial residual = 0.00938836, Final residual = 5.57445e-08, No Iterations 7
time step continuity errors : sum local = 4.49746e-08, global = -3.95556e-08, cumulative = -0.0126545
ExecutionTime = 5.73147 s  ClockTime = 5 s

Courant Number mean: 0.004554 max: 0.110349
Interface Courant Number mean: 0.000545885 max: 0.0214079
Diffusion number maximum: 4.01666
deltaT = 7.72876e-05
Time = 0.0996908s

smoothSolver:  Solving for alpha.water, Initial residual = 0.000263982, Final residual = 8.82446e-09, No Iterations 1
Phase-1 volume fraction = 0.750001  Min(alpha.water) = 0  Max(alpha.water) = 1
MULES: Correcting alpha.water
Phase-1 volume fraction = 0.750001  Min(alpha.water) = 0  Max(alpha.water) = 1
DILUPBiCGStab:  Solving for T, Initial residual = 0.000303988, Final residual = 2.94945e-09, No Iterations 1
min/max(T) = 300 , 306.602
DILUPBiCGStab:  Solving for Ux, Initial residual = 0.363878, Final residual = 4.07399e-07, No Iterations 2
DILUPBiCGStab:  Solving for Uy, Initial residual = 0.299246, Final residual = 5.67335e-07, No Iterations 2
GAMG:  Solving for p_rgh, Initial residual = 0.0111546, Final residual = 6.21441e-05, No Iterations 1
time step continuity errors : sum local = 6.88079e-05, global = 1.83425e-05, cumulative = -0.0126361
GAMG:  Solving for p_rgh, Initial residual = 0.00163806, Final residual = 7.56065e-08, No Iterations 6
time step continuity errors : sum local = 8.20753e-08, global = 8.2059e-08, cumulative = -0.0126361
ExecutionTime = 5.73436 s  ClockTime = 5 s

Courant Number mean: 0.0111805 max: 0.192051
Interface Courant Number mean: 0.00346189 max: 0.192051
Diffusion number maximum: 5.12952
deltaT = 7.72876e-05
Time = 0.0997681s

smoothSolver:  Solving for alpha.water, Initial residual = 0.00149305, Final residual = 2.45265e-10, No Iterations 2
Phase-1 volume fraction = 0.750001  Min(alpha.water) = 0  Max(alpha.water) = 1
MULES: Correcting alpha.water
Phase-1 volume fraction = 0.750001  Min(alpha.water) = 0  Max(alpha.water) = 1
DILUPBiCGStab:  Solving for T, Initial residual = 0.000304283, Final residual = 3.01931e-09, No Iterations 1
min/max(T) = 300 , 306.599
DILUPBiCGStab:  Solving for Ux, Initial residual = 0.255131, Final residual = 2.0012e-07, No Iterations 2
DILUPBiCGStab:  Solving for Uy, Initial residual = 0.550516, Final residual = 1.28265e-07, No Iterations 2
GAMG:  Solving for p_rgh, Initial residual = 0.0667459, Final residual = 0.000243284, No Iterations 1
time step continuity errors : sum local = 0.000257461, global = -3.26021e-05, cumulative = -0.0126687
GAMG:  Solving for p_rgh, Initial residual = 0.01117, Final residual = 4.37845e-08, No Iterations 8
time step continuity errors : sum local = 4.62138e-08, global = 4.62138e-08, cumulative = -0.0126686
ExecutionTime = 5.73753 s  ClockTime = 5 s

Courant Number mean: 0.0241683 max: 0.395533
Interface Courant Number mean: 0.00852918 max: 0.395533
Diffusion number maximum: 4.91843
deltaT = 3.86438e-05
Time = 0.0998068s

smoothSolver:  Solving for alpha.water, Initial residual = 0.0019271, Final residual = 7.42133e-10, No Iterations 2
Phase-1 volume fraction = 0.750001  Min(alpha.water) = 0  Max(alpha.water) = 1
MULES: Correcting alpha.water
Phase-1 volume fraction = 0.750001  Min(alpha.water) = 0  Max(alpha.water) = 1
DILUPBiCGStab:  Solving for T, Initial residual = 0.000152545, Final residual = 5.24283e-10, No Iterations 1
min/max(T) = 300 , 306.597
DILUPBiCGStab:  Solving for Ux, Initial residual = 0.210231, Final residual = 7.68452e-07, No Iterations 1
DILUPBiCGStab:  Solving for Uy, Initial residual = 0.319865, Final residual = 1.61164e-07, No Iterations 2
GAMG:  Solving for p_rgh, Initial residual = 0.0854149, Final residual = 0.000244481, No Iterations 1
time step continuity errors : sum local = 8.50129e-05, global = -5.9823e-06, cumulative = -0.0126746
GAMG:  Solving for p_rgh, Initial residual = 0.01044, Final residual = 9.74917e-08, No Iterations 8
time step continuity errors : sum local = 3.65435e-08, global = -3.13196e-08, cumulative = -0.0126746
ExecutionTime = 5.74093 s  ClockTime = 5 s

Courant Number mean: 0.00473678 max: 0.0637298
Interface Courant Number mean: 0.0012315 max: 0.0626117
Diffusion number maximum: 2.39699
deltaT = 3.86438e-05
Time = 0.0998454s

smoothSolver:  Solving for alpha.water, Initial residual = 0.000595514, Final residual = 2.31327e-12, No Iterations 2
Phase-1 volume fraction = 0.750001  Min(alpha.water) = 0  Max(alpha.water) = 1
MULES: Correcting alpha.water
Phase-1 volume fraction = 0.750001  Min(alpha.water) = 0  Max(alpha.water) = 1
DILUPBiCGStab:  Solving for T, Initial residual = 0.000152044, Final residual = 3.8736e-10, No Iterations 1
min/max(T) = 300 , 306.596
DILUPBiCGStab:  Solving for Ux, Initial residual = 0.411001, Final residual = 5.31807e-07, No Iterations 1
DILUPBiCGStab:  Solving for Uy, Initial residual = 0.44258, Final residual = 4.24022e-08, No Iterations 2
GAMG:  Solving for p_rgh, Initial residual = 0.0212556, Final residual = 0.000114858, No Iterations 1
time step continuity errors : sum local = 5.46813e-05, global = 5.2717e-06, cumulative = -0.0126693
GAMG:  Solving for p_rgh, Initial residual = 0.00234815, Final residual = 6.97085e-08, No Iterations 8
time step continuity errors : sum local = 3.05193e-08, global = 2.92417e-08, cumulative = -0.0126693
ExecutionTime = 5.74451 s  ClockTime = 5 s

Courant Number mean: 0.00727674 max: 0.12416
Interface Courant Number mean: 0.0025377 max: 0.12416
Diffusion number maximum: 2.42236
deltaT = 3.86438e-05
Time = 0.0998841s

smoothSolver:  Solving for alpha.water, Initial residual = 0.00108789, Final residual = 1.44836e-11, No Iterations 2
Phase-1 volume fraction = 0.750001  Min(alpha.water) = 0  Max(alpha.water) = 1
MULES: Correcting alpha.water
Phase-1 volume fraction = 0.750001  Min(alpha.water) = 0  Max(alpha.water) = 1
DILUPBiCGStab:  Solving for T, Initial residual = 0.000152277, Final residual = 4.07022e-10, No Iterations 1
min/max(T) = 300 , 306.594
DILUPBiCGStab:  Solving for Ux, Initial residual = 0.380652, Final residual = 8.33453e-07, No Iterations 1
DILUPBiCGStab:  Solving for Uy, Initial residual = 0.263668, Final residual = 6.98098e-08, No Iterations 2
GAMG:  Solving for p_rgh, Initial residual = 0.0639246, Final residual = 0.000281571, No Iterations 1
time step continuity errors : sum local = 8.68624e-05, global = 3.42377e-06, cumulative = -0.0126659
GAMG:  Solving for p_rgh, Initial residual = 0.00649338, Final residual = 9.25256e-08, No Iterations 8
time step continuity errors : sum local = 3.04043e-08, global = -2.48557e-08, cumulative = -0.0126659
ExecutionTime = 5.74754 s  ClockTime = 5 s

Courant Number mean: 0.0070851 max: 0.108226
Interface Courant Number mean: 0.00234219 max: 0.108226
Diffusion number maximum: 2.55513
deltaT = 3.86438e-05
Time = 0.0999227s

smoothSolver:  Solving for alpha.water, Initial residual = 0.0010504, Final residual = 2.07768e-11, No Iterations 2
Phase-1 volume fraction = 0.750001  Min(alpha.water) = 0  Max(alpha.water) = 1
MULES: Correcting alpha.water
Phase-1 volume fraction = 0.750001  Min(alpha.water) = 0  Max(alpha.water) = 1
DILUPBiCGStab:  Solving for T, Initial residual = 0.000152168, Final residual = 4.07794e-10, No Iterations 1
min/max(T) = 300 , 306.593
DILUPBiCGStab:  Solving for Ux, Initial residual = 0.108451, Final residual = 2.51499e-07, No Iterations 1
DILUPBiCGStab:  Solving for Uy, Initial residual = 0.285023, Final residual = 8.72532e-08, No Iterations 2
GAMG:  Solving for p_rgh, Initial residual = 0.045295, Final residual = 0.000119842, No Iterations 1
time step continuity errors : sum local = 5.07912e-05, global = -5.72115e-06, cumulative = -0.0126716
GAMG:  Solving for p_rgh, Initial residual = 0.00482332, Final residual = 9.17667e-08, No Iterations 6
time step continuity errors : sum local = 3.83661e-08, global = 3.83661e-08, cumulative = -0.0126716
ExecutionTime = 5.75052 s  ClockTime = 5 s

Courant Number mean: 0.00289303 max: 0.0271222
Interface Courant Number mean: 0.000442952 max: 0.0208256
Diffusion number maximum: 2.50178
deltaT = 3.86438e-05
Time = 0.0999614s

smoothSolver:  Solving for alpha.water, Initial residual = 0.000175421, Final residual = 2.00476e-09, No Iterations 1
Phase-1 volume fraction = 0.750001  Min(alpha.water) = 0  Max(alpha.water) = 1
MULES: Correcting alpha.water
Phase-1 volume fraction = 0.750001  Min(alpha.water) = 0  Max(alpha.water) = 1
DILUPBiCGStab:  Solving for T, Initial residual = 0.000152107, Final residual = 3.83317e-10, No Iterations 1
min/max(T) = 300 , 306.591
DILUPBiCGStab:  Solving for Ux, Initial residual = 0.449569, Final residual = 5.66405e-07, No Iterations 1
DILUPBiCGStab:  Solving for Uy, Initial residual = 0.289778, Final residual = 8.58021e-07, No Iterations 1
GAMG:  Solving for p_rgh, Initial residual = 0.00909499, Final residual = 3.43359e-05, No Iterations 1
time step continuity errors : sum local = 1.38507e-05, global = 4.39001e-06, cumulative = -0.0126672
GAMG:  Solving for p_rgh, Initial residual = 0.000923837, Final residual = 9.09533e-08, No Iterations 6
time step continuity errors : sum local = 3.58549e-08, global = 3.5831e-08, cumulative = -0.0126672
ExecutionTime = 5.75336 s  ClockTime = 5 s

Courant Number mean: 0.00580339 max: 0.0785766
Interface Courant Number mean: 0.00186278 max: 0.0785766
Diffusion number maximum: 2.50987
deltaT = 3.86438e-05
Time = 0.1s

smoothSolver:  Solving for alpha.water, Initial residual = 0.000804456, Final residual = 1.16594e-11, No Iterations 2
Phase-1 volume fraction = 0.750001  Min(alpha.water) = 0  Max(alpha.water) = 1
MULES: Correcting alpha.water
Phase-1 volume fraction = 0.750001  Min(alpha.water) = 0  Max(alpha.water) = 1
DILUPBiCGStab:  Solving for T, Initial residual = 0.000152299, Final residual = 3.97252e-10, No Iterations 1
min/max(T) = 300 , 306.59
DILUPBiCGStab:  Solving for Ux, Initial residual = 0.266356, Final residual = 4.95076e-07, No Iterations 1
DILUPBiCGStab:  Solving for Uy, Initial residual = 0.20533, Final residual = 6.04642e-08, No Iterations 2
GAMG:  Solving for p_rgh, Initial residual = 0.0449354, Final residual = 0.000126418, No Iterations 1
time step continuity errors : sum local = 4.5562e-05, global = -4.04555e-06, cumulative = -0.0126712
GAMG:  Solving for p_rgh, Initial residual = 0.00446074, Final residual = 6.41076e-08, No Iterations 7
time step continuity errors : sum local = 2.34272e-08, global = -2.1418e-08, cumulative = -0.0126712
ExecutionTime = 5.75972 s  ClockTime = 5 s

End

