/*---------------------------------------------------------------------------*\
  =========                 |
  \\      /  F ield         | OpenFOAM: The Open Source CFD Toolbox
   \\    /   O peration     | Website:  https://openfoam.org
    \\  /    A nd           | Version:  10
     \\/     M anipulation  |
\*---------------------------------------------------------------------------*/
Build  : 10-c4cf895ad8fa
Exec   : interThermoFoam
Date   : Jul 31 2025
Time   : 11:27:33
Host   : "Erazer"
PID    : 5023
I/O    : uncollated
Case   : /home/sahin/OpenFOAM/sahin-10/run/copyFallingDrop
nProcs : 1
sigFpe : Enabling floating point exception trapping (FOAM_SIGFPE).
fileModificationChecking : Monitoring run-time modified files using timeStampMaster (fileModificationSkew 10)
allowSystemOperations : Allowing user-supplied system call operations

// * * * * * * * * * * * * * * * * * * * * * * * * * * * * * * * * * * * * * //
Create time

Create mesh for time = 0


PIMPLE: No convergence criteria found


PIMPLE: No corrector convergence criteria found
        Calculations will do 2 corrections


PIMPLE: Operating solver in transient mode with 2 outer correctors


Reading field p_rgh

Reading field U

Reading/calculating face flux field phi

Reading phaseProperties

Selecting viscosity model Newtonian
Selecting viscosity model Newtonian
No phase change: phaseChangeProperties not found
Selecting phaseChange model none
Reading thermophysical properties

Creating thermophysical fields


Reading g

Reading hRef
Calculating field g.h

Selecting turbulence model type laminar
Selecting laminar stress model Stokes
No MRF models present

No fvModels present
No fvConstraints present
GAMG:  Solving for pcorr, Initial residual = 1, Final residual = 6.45859e-11, No Iterations 30
time step continuity errors : sum local = 7.91986e-17, global = -7.51391e-17, cumulative = -7.51391e-17
Courant Number mean: 2.67468e-05 max: 0.0875824

Starting time loop

Courant Number mean: 2.67468e-05 max: 0.0875824
Interface Courant Number mean: 0 max: 0
Diffusion number maximum: 50.3902
deltaT = 9.78261e-06
Time = 9.78261e-06s

PIMPLE: Iteration 1
smoothSolver:  Solving for alpha.water, Initial residual = 1.40364e-06, Final residual = 2.75236e-10, No Iterations 1
Phase-1 volume fraction = 0.13505  Min(alpha.water) = 0  Max(alpha.water) = 1
MULES: Correcting alpha.water
Phase-1 volume fraction = 0.13505  Min(alpha.water) = -1.8399e-42  Max(alpha.water) = 1
DILUPBiCGStab:  Solving for T, Initial residual = 0.527457, Final residual = 5.20347e-08, No Iterations 1
min/max(T) = 300 , 300
DILUPBiCGStab:  Solving for Ux, Initial residual = 1, Final residual = 5.98835e-08, No Iterations 1
DILUPBiCGStab:  Solving for Uy, Initial residual = 0.0876116, Final residual = 3.34079e-09, No Iterations 1
DILUPBiCGStab:  Solving for Uz, Initial residual = 0.000258346, Final residual = 3.43681e-08, No Iterations 1
GAMG:  Solving for p_rgh, Initial residual = 1, Final residual = 0.0871791, No Iterations 2
time step continuity errors : sum local = 2.31582e-07, global = -2.97039e-09, cumulative = -2.97039e-09
GAMG:  Solving for p_rgh, Initial residual = 0.0151575, Final residual = 6.87512e-08, No Iterations 15
time step continuity errors : sum local = 1.3464e-12, global = -1.30527e-12, cumulative = -2.97169e-09
PIMPLE: Iteration 2
smoothSolver:  Solving for alpha.water, Initial residual = 1.01339e-06, Final residual = 9.10444e-10, No Iterations 1
Phase-1 volume fraction = 0.13505  Min(alpha.water) = 0  Max(alpha.water) = 1
MULES: Correcting alpha.water
Phase-1 volume fraction = 0.13505  Min(alpha.water) = -6.95096e-20  Max(alpha.water) = 1
DILUPBiCGStab:  Solving for T, Initial residual = 0.468054, Final residual = 6.26083e-09, No Iterations 1
min/max(T) = 300 , 300
DILUPBiCGStab:  Solving for Ux, Initial residual = 0.000209365, Final residual = 7.57451e-08, No Iterations 1
DILUPBiCGStab:  Solving for Uy, Initial residual = 0.000730777, Final residual = 6.05113e-08, No Iterations 1
DILUPBiCGStab:  Solving for Uz, Initial residual = 9.36148e-05, Final residual = 2.27465e-08, No Iterations 1
GAMG:  Solving for p_rgh, Initial residual = 0.0194116, Final residual = 0.000717419, No Iterations 1
time step continuity errors : sum local = 2.53094e-08, global = 5.0558e-11, cumulative = -2.92114e-09
GAMG:  Solving for p_rgh, Initial residual = 0.00195814, Final residual = 6.51402e-08, No Iterations 11
time step continuity errors : sum local = 1.86482e-12, global = 1.79471e-12, cumulative = -2.91934e-09
ExecutionTime = 0.23666 s  ClockTime = 0 s

Courant Number mean: 3.29221e-05 max: 0.0992672
Interface Courant Number mean: 1.07677e-06 max: 0.0957357
Diffusion number maximum: 49.2948
deltaT = 9.78261e-06
Time = 1.95652e-05s

PIMPLE: Iteration 1
smoothSolver:  Solving for alpha.water, Initial residual = 1.81058e-06, Final residual = 2.213e-09, No Iterations 1
Phase-1 volume fraction = 0.13505  Min(alpha.water) = 0  Max(alpha.water) = 1
MULES: Correcting alpha.water
Phase-1 volume fraction = 0.13505  Min(alpha.water) = -2.023e-30  Max(alpha.water) = 1
DILUPBiCGStab:  Solving for T, Initial residual = 0.311718, Final residual = 3.43851e-09, No Iterations 1
min/max(T) = 300 , 300
DILUPBiCGStab:  Solving for Ux, Initial residual = 0.00613955, Final residual = 4.44385e-07, No Iterations 1
DILUPBiCGStab:  Solving for Uy, Initial residual = 0.00289637, Final residual = 1.03468e-07, No Iterations 1
DILUPBiCGStab:  Solving for Uz, Initial residual = 0.000171837, Final residual = 1.38605e-08, No Iterations 1
GAMG:  Solving for p_rgh, Initial residual = 0.0471701, Final residual = 0.00359073, No Iterations 3
time step continuity errors : sum local = 9.80722e-08, global = 4.67788e-09, cumulative = 1.75854e-09
GAMG:  Solving for p_rgh, Initial residual = 0.0123456, Final residual = 9.22082e-08, No Iterations 14
time step continuity errors : sum local = 1.59254e-12, global = 1.54372e-12, cumulative = 1.76008e-09
PIMPLE: Iteration 2
smoothSolver:  Solving for alpha.water, Initial residual = 5.44634e-07, Final residual = 4.90928e-10, No Iterations 1
Phase-1 volume fraction = 0.13505  Min(alpha.water) = 0  Max(alpha.water) = 1
MULES: Correcting alpha.water
Phase-1 volume fraction = 0.13505  Min(alpha.water) = -5.56077e-19  Max(alpha.water) = 1
DILUPBiCGStab:  Solving for T, Initial residual = 0.311104, Final residual = 3.06901e-09, No Iterations 1
min/max(T) = 300 , 300
DILUPBiCGStab:  Solving for Ux, Initial residual = 6.08799e-05, Final residual = 1.25423e-08, No Iterations 1
DILUPBiCGStab:  Solving for Uy, Initial residual = 0.00052872, Final residual = 3.34643e-08, No Iterations 1
DILUPBiCGStab:  Solving for Uz, Initial residual = 7.41431e-06, Final residual = 1.59578e-09, No Iterations 1
GAMG:  Solving for p_rgh, Initial residual = 0.015955, Final residual = 0.00048368, No Iterations 1
time step continuity errors : sum local = 3.9649e-09, global = -8.98363e-12, cumulative = 1.7511e-09
GAMG:  Solving for p_rgh, Initial residual = 0.00102897, Final residual = 8.67632e-08, No Iterations 9
time step continuity errors : sum local = 6.93527e-13, global = -6.59831e-13, cumulative = 1.75044e-09
ExecutionTime = 0.363729 s  ClockTime = 0 s

Courant Number mean: 3.46897e-05 max: 0.106115
Interface Courant Number mean: 1.10829e-06 max: 0.0973007
Diffusion number maximum: 49.2948
deltaT = 9.78261e-06
Time = 2.93478e-05s

PIMPLE: Iteration 1
smoothSolver:  Solving for alpha.water, Initial residual = 1.85518e-06, Final residual = 2.21911e-09, No Iterations 1
Phase-1 volume fraction = 0.13505  Min(alpha.water) = 0  Max(alpha.water) = 1
MULES: Correcting alpha.water
Phase-1 volume fraction = 0.13505  Min(alpha.water) = -6.95096e-20  Max(alpha.water) = 1
DILUPBiCGStab:  Solving for T, Initial residual = 0.245747, Final residual = 3.10401e-09, No Iterations 1
min/max(T) = 300 , 300
DILUPBiCGStab:  Solving for Ux, Initial residual = 0.000779443, Final residual = 9.19886e-08, No Iterations 1
DILUPBiCGStab:  Solving for Uy, Initial residual = 0.00209442, Final residual = 8.61392e-08, No Iterations 1
DILUPBiCGStab:  Solving for Uz, Initial residual = 3.59012e-05, Final residual = 6.82504e-09, No Iterations 1
GAMG:  Solving for p_rgh, Initial residual = 0.0541354, Final residual = 0.00141646, No Iterations 1
time step continuity errors : sum local = 1.1268e-08, global = 1.05709e-11, cumulative = 1.76101e-09
GAMG:  Solving for p_rgh, Initial residual = 0.00206247, Final residual = 5.1801e-08, No Iterations 12
time step continuity errors : sum local = 4.96843e-13, global = 4.80077e-13, cumulative = 1.76149e-09
PIMPLE: Iteration 2
smoothSolver:  Solving for alpha.water, Initial residual = 8.9435e-07, Final residual = 8.86435e-10, No Iterations 1
Phase-1 volume fraction = 0.13505  Min(alpha.water) = 0  Max(alpha.water) = 1
MULES: Correcting alpha.water
Phase-1 volume fraction = 0.13505  Min(alpha.water) = -6.95096e-20  Max(alpha.water) = 1
DILUPBiCGStab:  Solving for T, Initial residual = 0.251274, Final residual = 2.37572e-09, No Iterations 1
min/max(T) = 300 , 300
DILUPBiCGStab:  Solving for Ux, Initial residual = 4.12793e-05, Final residual = 1.07713e-08, No Iterations 1
DILUPBiCGStab:  Solving for Uy, Initial residual = 0.000570611, Final residual = 3.63487e-08, No Iterations 1
DILUPBiCGStab:  Solving for Uz, Initial residual = 3.74975e-06, Final residual = 8.49848e-10, No Iterations 1
GAMG:  Solving for p_rgh, Initial residual = 0.0129869, Final residual = 0.000379433, No Iterations 1
time step continuity errors : sum local = 3.56845e-09, global = 3.83138e-14, cumulative = 1.76153e-09
GAMG:  Solving for p_rgh, Initial residual = 0.000851248, Final residual = 8.81907e-08, No Iterations 8
time step continuity errors : sum local = 8.29856e-13, global = 6.73155e-13, cumulative = 1.7622e-09
ExecutionTime = 0.489704 s  ClockTime = 0 s

Courant Number mean: 3.59207e-05 max: 0.110187
Interface Courant Number mean: 1.1277e-06 max: 0.0979812
Diffusion number maximum: 49.2948
deltaT = 9.78261e-06
Time = 3.91304e-05s

PIMPLE: Iteration 1
smoothSolver:  Solving for alpha.water, Initial residual = 1.88158e-06, Final residual = 2.19025e-09, No Iterations 1
Phase-1 volume fraction = 0.13505  Min(alpha.water) = 0  Max(alpha.water) = 1
MULES: Correcting alpha.water
Phase-1 volume fraction = 0.13505  Min(alpha.water) = -1.39019e-19  Max(alpha.water) = 1
DILUPBiCGStab:  Solving for T, Initial residual = 0.189967, Final residual = 1.76588e-09, No Iterations 1
min/max(T) = 300 , 300
DILUPBiCGStab:  Solving for Ux, Initial residual = 0.000574924, Final residual = 7.96098e-08, No Iterations 1
DILUPBiCGStab:  Solving for Uy, Initial residual = 0.00160865, Final residual = 6.65051e-08, No Iterations 1
DILUPBiCGStab:  Solving for Uz, Initial residual = 2.79662e-05, Final residual = 6.68288e-09, No Iterations 1
GAMG:  Solving for p_rgh, Initial residual = 0.0399603, Final residual = 0.000733526, No Iterations 1
time step continuity errors : sum local = 6.79671e-09, global = 6.98228e-12, cumulative = 1.76918e-09
GAMG:  Solving for p_rgh, Initial residual = 0.00129862, Final residual = 5.73825e-08, No Iterations 10
time step continuity errors : sum local = 5.85646e-13, global = 5.59356e-13, cumulative = 1.76974e-09
PIMPLE: Iteration 2
smoothSolver:  Solving for alpha.water, Initial residual = 1.19359e-06, Final residual = 1.23968e-09, No Iterations 1
Phase-1 volume fraction = 0.13505  Min(alpha.water) = 0  Max(alpha.water) = 1
MULES: Correcting alpha.water
Phase-1 volume fraction = 0.13505  Min(alpha.water) = -4.04599e-30  Max(alpha.water) = 1
DILUPBiCGStab:  Solving for T, Initial residual = 0.199422, Final residual = 1.74199e-09, No Iterations 1
min/max(T) = 300 , 300
DILUPBiCGStab:  Solving for Ux, Initial residual = 2.99556e-05, Final residual = 9.38592e-09, No Iterations 1
DILUPBiCGStab:  Solving for Uy, Initial residual = 0.000232224, Final residual = 1.72006e-08, No Iterations 1
DILUPBiCGStab:  Solving for Uz, Initial residual = 2.43572e-06, Final residual = 6.82594e-10, No Iterations 1
GAMG:  Solving for p_rgh, Initial residual = 0.010913, Final residual = 0.000356513, No Iterations 1
time step continuity errors : sum local = 3.66761e-09, global = -4.54383e-12, cumulative = 1.7652e-09
GAMG:  Solving for p_rgh, Initial residual = 0.000778335, Final residual = 8.90315e-08, No Iterations 8
time step continuity errors : sum local = 9.22721e-13, global = -8.26568e-13, cumulative = 1.76437e-09
ExecutionTime = 0.614612 s  ClockTime = 0 s

Courant Number mean: 3.70901e-05 max: 0.112654
Interface Courant Number mean: 1.14111e-06 max: 0.0983469
Diffusion number maximum: 49.2948
deltaT = 9.78261e-06
Time = 4.8913e-05s

PIMPLE: Iteration 1
smoothSolver:  Solving for alpha.water, Initial residual = 1.89989e-06, Final residual = 2.17774e-09, No Iterations 1
Phase-1 volume fraction = 0.13505  Min(alpha.water) = 0  Max(alpha.water) = 1
MULES: Correcting alpha.water
Phase-1 volume fraction = 0.13505  Min(alpha.water) = -8.09198e-30  Max(alpha.water) = 1
DILUPBiCGStab:  Solving for T, Initial residual = 0.159616, Final residual = 1.48379e-09, No Iterations 1
min/max(T) = 300 , 300
DILUPBiCGStab:  Solving for Ux, Initial residual = 0.000546132, Final residual = 9.99966e-08, No Iterations 1
DILUPBiCGStab:  Solving for Uy, Initial residual = 0.00173628, Final residual = 8.04749e-08, No Iterations 1
DILUPBiCGStab:  Solving for Uz, Initial residual = 2.55258e-05, Final residual = 6.52821e-09, No Iterations 1
GAMG:  Solving for p_rgh, Initial residual = 0.0309563, Final residual = 0.000630248, No Iterations 1
time step continuity errors : sum local = 6.42397e-09, global = 6.76358e-12, cumulative = 1.77114e-09
GAMG:  Solving for p_rgh, Initial residual = 0.00116929, Final residual = 5.28401e-08, No Iterations 10
time step continuity errors : sum local = 5.65948e-13, global = 5.41552e-13, cumulative = 1.77168e-09
PIMPLE: Iteration 2
smoothSolver:  Solving for alpha.water, Initial residual = 1.41836e-06, Final residual = 1.46663e-09, No Iterations 1
Phase-1 volume fraction = 0.13505  Min(alpha.water) = 0  Max(alpha.water) = 1
MULES: Correcting alpha.water
Phase-1 volume fraction = 0.13505  Min(alpha.water) = -6.95096e-20  Max(alpha.water) = 1
DILUPBiCGStab:  Solving for T, Initial residual = 0.16531, Final residual = 1.45676e-09, No Iterations 1
min/max(T) = 300 , 300
DILUPBiCGStab:  Solving for Ux, Initial residual = 3.60998e-05, Final residual = 1.27399e-08, No Iterations 1
DILUPBiCGStab:  Solving for Uy, Initial residual = 0.000865744, Final residual = 4.48948e-08, No Iterations 1
DILUPBiCGStab:  Solving for Uz, Initial residual = 1.82837e-06, Final residual = 8.69154e-10, No Iterations 1
GAMG:  Solving for p_rgh, Initial residual = 0.00835226, Final residual = 0.00028045, No Iterations 1
time step continuity errors : sum local = 3.01004e-09, global = -1.82045e-12, cumulative = 1.76986e-09
GAMG:  Solving for p_rgh, Initial residual = 0.000678668, Final residual = 6.68358e-08, No Iterations 9
time step continuity errors : sum local = 7.21484e-13, global = -2.80655e-13, cumulative = 1.76958e-09
ExecutionTime = 0.739816 s  ClockTime = 0 s

Courant Number mean: 3.81808e-05 max: 0.11375
Interface Courant Number mean: 1.69592e-06 max: 0.0985567
Diffusion number maximum: 49.2948
deltaT = 9.78261e-06
Time = 5.86957e-05s

PIMPLE: Iteration 1
smoothSolver:  Solving for alpha.water, Initial residual = 1.91302e-06, Final residual = 2.17257e-09, No Iterations 1
Phase-1 volume fraction = 0.13505  Min(alpha.water) = 0  Max(alpha.water) = 1
MULES: Correcting alpha.water
Phase-1 volume fraction = 0.13505  Min(alpha.water) = -1.6184e-29  Max(alpha.water) = 1
DILUPBiCGStab:  Solving for T, Initial residual = 0.132057, Final residual = 1.15154e-09, No Iterations 1
min/max(T) = 300 , 300
DILUPBiCGStab:  Solving for Ux, Initial residual = 0.000525642, Final residual = 9.25353e-08, No Iterations 1
DILUPBiCGStab:  Solving for Uy, Initial residual = 0.00279966, Final residual = 1.50827e-07, No Iterations 1
DILUPBiCGStab:  Solving for Uz, Initial residual = 2.33878e-05, Final residual = 5.703e-09, No Iterations 1
GAMG:  Solving for p_rgh, Initial residual = 0.0259183, Final residual = 0.00075053, No Iterations 1
time step continuity errors : sum local = 8.03208e-09, global = 1.32985e-11, cumulative = 1.78287e-09
GAMG:  Solving for p_rgh, Initial residual = 0.00131115, Final residual = 9.79722e-08, No Iterations 10
time step continuity errors : sum local = 1.06699e-12, global = 1.02106e-12, cumulative = 1.7839e-09
PIMPLE: Iteration 2
smoothSolver:  Solving for alpha.water, Initial residual = 1.5539e-06, Final residual = 1.53399e-09, No Iterations 1
Phase-1 volume fraction = 0.13505  Min(alpha.water) = 0  Max(alpha.water) = 1
MULES: Correcting alpha.water
Phase-1 volume fraction = 0.13505  Min(alpha.water) = -6.95096e-20  Max(alpha.water) = 1
DILUPBiCGStab:  Solving for T, Initial residual = 0.145847, Final residual = 1.29458e-09, No Iterations 1
min/max(T) = 300 , 300
DILUPBiCGStab:  Solving for Ux, Initial residual = 2.97278e-05, Final residual = 1.22939e-08, No Iterations 1
DILUPBiCGStab:  Solving for Uy, Initial residual = 0.000999626, Final residual = 8.85784e-08, No Iterations 1
DILUPBiCGStab:  Solving for Uz, Initial residual = 1.63124e-06, Final residual = 6.5926e-10, No Iterations 1
GAMG:  Solving for p_rgh, Initial residual = 0.00760076, Final residual = 0.000234565, No Iterations 1
time step continuity errors : sum local = 2.50297e-09, global = 8.09988e-13, cumulative = 1.78471e-09
GAMG:  Solving for p_rgh, Initial residual = 0.000604132, Final residual = 9.17024e-08, No Iterations 8
time step continuity errors : sum local = 9.81036e-13, global = 8.254e-13, cumulative = 1.78553e-09
ExecutionTime = 0.863677 s  ClockTime = 0 s

Courant Number mean: 3.90482e-05 max: 0.113931
Interface Courant Number mean: 2.07349e-06 max: 0.0995918
Diffusion number maximum: 49.2948
deltaT = 9.78261e-06
Time = 6.84783e-05s

PIMPLE: Iteration 1
smoothSolver:  Solving for alpha.water, Initial residual = 1.92349e-06, Final residual = 2.16044e-09, No Iterations 1
Phase-1 volume fraction = 0.13505  Min(alpha.water) = 0  Max(alpha.water) = 1
MULES: Correcting alpha.water
Phase-1 volume fraction = 0.13505  Min(alpha.water) = -1.6184e-29  Max(alpha.water) = 1
DILUPBiCGStab:  Solving for T, Initial residual = 0.120453, Final residual = 1.04127e-09, No Iterations 1
min/max(T) = 300 , 300
DILUPBiCGStab:  Solving for Ux, Initial residual = 0.000467324, Final residual = 6.69136e-08, No Iterations 1
DILUPBiCGStab:  Solving for Uy, Initial residual = 0.00306902, Final residual = 1.65528e-07, No Iterations 1
DILUPBiCGStab:  Solving for Uz, Initial residual = 2.11219e-05, Final residual = 4.2223e-09, No Iterations 1
GAMG:  Solving for p_rgh, Initial residual = 0.0230081, Final residual = 0.000463688, No Iterations 1
time step continuity errors : sum local = 4.93418e-09, global = 1.0037e-11, cumulative = 1.79557e-09
GAMG:  Solving for p_rgh, Initial residual = 0.000967907, Final residual = 6.01497e-08, No Iterations 10
time step continuity errors : sum local = 6.48768e-13, global = 6.21573e-13, cumulative = 1.79619e-09
PIMPLE: Iteration 2
smoothSolver:  Solving for alpha.water, Initial residual = 1.62087e-06, Final residual = 1.49037e-09, No Iterations 1
Phase-1 volume fraction = 0.13505  Min(alpha.water) = -6.36456e-20  Max(alpha.water) = 1
MULES: Correcting alpha.water
Phase-1 volume fraction = 0.13505  Min(alpha.water) = -6.36456e-20  Max(alpha.water) = 1
DILUPBiCGStab:  Solving for T, Initial residual = 0.122638, Final residual = 1.09163e-09, No Iterations 1
min/max(T) = 300 , 300
DILUPBiCGStab:  Solving for Ux, Initial residual = 2.44254e-05, Final residual = 6.81163e-09, No Iterations 1
DILUPBiCGStab:  Solving for Uy, Initial residual = 0.00170177, Final residual = 1.57645e-07, No Iterations 1
DILUPBiCGStab:  Solving for Uz, Initial residual = 1.39724e-06, Final residual = 5.36887e-10, No Iterations 1
GAMG:  Solving for p_rgh, Initial residual = 0.00635843, Final residual = 0.000209267, No Iterations 1
time step continuity errors : sum local = 2.23062e-09, global = 2.19316e-12, cumulative = 1.79838e-09
GAMG:  Solving for p_rgh, Initial residual = 0.000552813, Final residual = 5.7606e-08, No Iterations 9
time step continuity errors : sum local = 6.14371e-13, global = 5.6649e-13, cumulative = 1.79895e-09
ExecutionTime = 0.988417 s  ClockTime = 1 s

Courant Number mean: 3.97458e-05 max: 0.113224
Interface Courant Number mean: 2.32817e-06 max: 0.100314
Diffusion number maximum: 49.2948
deltaT = 9.78261e-06
Time = 7.82609e-05s

PIMPLE: Iteration 1
smoothSolver:  Solving for alpha.water, Initial residual = 1.93142e-06, Final residual = 2.1463e-09, No Iterations 1
Phase-1 volume fraction = 0.13505  Min(alpha.water) = -5.82861e-20  Max(alpha.water) = 1
MULES: Correcting alpha.water
Phase-1 volume fraction = 0.13505  Min(alpha.water) = -5.82861e-20  Max(alpha.water) = 1
DILUPBiCGStab:  Solving for T, Initial residual = 0.102335, Final residual = 9.11004e-10, No Iterations 1
min/max(T) = 300 , 300
DILUPBiCGStab:  Solving for Ux, Initial residual = 0.000423415, Final residual = 5.32389e-08, No Iterations 1
DILUPBiCGStab:  Solving for Uy, Initial residual = 0.00335598, Final residual = 1.87598e-07, No Iterations 1
DILUPBiCGStab:  Solving for Uz, Initial residual = 1.95836e-05, Final residual = 3.4582e-09, No Iterations 1
GAMG:  Solving for p_rgh, Initial residual = 0.0214509, Final residual = 0.000358393, No Iterations 1
time step continuity errors : sum local = 3.81348e-09, global = 5.64806e-12, cumulative = 1.8046e-09
GAMG:  Solving for p_rgh, Initial residual = 0.000841814, Final residual = 7.06085e-08, No Iterations 9
time step continuity errors : sum local = 7.47751e-13, global = 7.10146e-13, cumulative = 1.80531e-09
PIMPLE: Iteration 2
smoothSolver:  Solving for alpha.water, Initial residual = 1.63175e-06, Final residual = 1.3789e-09, No Iterations 1
Phase-1 volume fraction = 0.13505  Min(alpha.water) = -5.81581e-20  Max(alpha.water) = 1
MULES: Correcting alpha.water
Phase-1 volume fraction = 0.13505  Min(alpha.water) = -5.81581e-20  Max(alpha.water) = 1
DILUPBiCGStab:  Solving for T, Initial residual = 0.11045, Final residual = 1.07096e-09, No Iterations 1
min/max(T) = 300 , 300
DILUPBiCGStab:  Solving for Ux, Initial residual = 2.10727e-05, Final residual = 5.43082e-09, No Iterations 1
DILUPBiCGStab:  Solving for Uy, Initial residual = 0.000839121, Final residual = 6.71901e-08, No Iterations 1
DILUPBiCGStab:  Solving for Uz, Initial residual = 1.23155e-06, Final residual = 5.17133e-10, No Iterations 1
GAMG:  Solving for p_rgh, Initial residual = 0.00582669, Final residual = 0.000212482, No Iterations 1
time step continuity errors : sum local = 2.23847e-09, global = 3.72383e-12, cumulative = 1.80903e-09
GAMG:  Solving for p_rgh, Initial residual = 0.000554954, Final residual = 7.77229e-08, No Iterations 9
time step continuity errors : sum local = 8.18668e-13, global = 7.58436e-13, cumulative = 1.80979e-09
ExecutionTime = 1.11334 s  ClockTime = 1 s

Courant Number mean: 4.03061e-05 max: 0.11169
Interface Courant Number mean: 2.34168e-06 max: 0.100484
Diffusion number maximum: 49.2948
deltaT = 9.78261e-06
Time = 8.80435e-05s

PIMPLE: Iteration 1
smoothSolver:  Solving for alpha.water, Initial residual = 1.93867e-06, Final residual = 2.12799e-09, No Iterations 1
Phase-1 volume fraction = 0.13505  Min(alpha.water) = -5.31421e-20  Max(alpha.water) = 1
MULES: Correcting alpha.water
Phase-1 volume fraction = 0.13505  Min(alpha.water) = -5.31421e-20  Max(alpha.water) = 1
DILUPBiCGStab:  Solving for T, Initial residual = 0.0975702, Final residual = 8.14119e-10, No Iterations 1
min/max(T) = 300 , 300
DILUPBiCGStab:  Solving for Ux, Initial residual = 0.000388796, Final residual = 4.71924e-08, No Iterations 1
DILUPBiCGStab:  Solving for Uy, Initial residual = 0.00330105, Final residual = 2.32972e-07, No Iterations 1
DILUPBiCGStab:  Solving for Uz, Initial residual = 1.83575e-05, Final residual = 3.09309e-09, No Iterations 1
GAMG:  Solving for p_rgh, Initial residual = 0.0205284, Final residual = 0.000345179, No Iterations 1
time step continuity errors : sum local = 3.63734e-09, global = 4.75894e-12, cumulative = 1.81455e-09
GAMG:  Solving for p_rgh, Initial residual = 0.00073464, Final residual = 8.32702e-08, No Iterations 9
time step continuity errors : sum local = 8.67485e-13, global = 8.07063e-13, cumulative = 1.81536e-09
PIMPLE: Iteration 2
smoothSolver:  Solving for alpha.water, Initial residual = 1.59482e-06, Final residual = 1.23047e-09, No Iterations 1
Phase-1 volume fraction = 0.13505  Min(alpha.water) = -5.30318e-20  Max(alpha.water) = 1
MULES: Correcting alpha.water
Phase-1 volume fraction = 0.13505  Min(alpha.water) = -5.30318e-20  Max(alpha.water) = 1
DILUPBiCGStab:  Solving for T, Initial residual = 0.101357, Final residual = 8.39507e-10, No Iterations 1
min/max(T) = 300 , 300
DILUPBiCGStab:  Solving for Ux, Initial residual = 1.90498e-05, Final residual = 5.62947e-09, No Iterations 1
DILUPBiCGStab:  Solving for Uy, Initial residual = 0.00052775, Final residual = 4.80748e-08, No Iterations 1
DILUPBiCGStab:  Solving for Uz, Initial residual = 1.09938e-06, Final residual = 5.36085e-10, No Iterations 1
GAMG:  Solving for p_rgh, Initial residual = 0.00614662, Final residual = 0.000255282, No Iterations 1
time step continuity errors : sum local = 2.65741e-09, global = 5.29336e-12, cumulative = 1.82065e-09
GAMG:  Solving for p_rgh, Initial residual = 0.000608515, Final residual = 5.05618e-08, No Iterations 10
time step continuity errors : sum local = 5.2531e-13, global = 4.99246e-13, cumulative = 1.82115e-09
ExecutionTime = 1.23862 s  ClockTime = 1 s

Courant Number mean: 4.07456e-05 max: 0.110085
Interface Courant Number mean: 2.35229e-06 max: 0.100864
Diffusion number maximum: 49.2948
deltaT = 9.78261e-06
Time = 9.78261e-05s

PIMPLE: Iteration 1
smoothSolver:  Solving for alpha.water, Initial residual = 1.94417e-06, Final residual = 2.10773e-09, No Iterations 1
Phase-1 volume fraction = 0.13505  Min(alpha.water) = -4.83555e-20  Max(alpha.water) = 1
MULES: Correcting alpha.water
Phase-1 volume fraction = 0.13505  Min(alpha.water) = -4.83555e-20  Max(alpha.water) = 1
DILUPBiCGStab:  Solving for T, Initial residual = 0.0866962, Final residual = 7.90068e-10, No Iterations 1
min/max(T) = 300 , 300
DILUPBiCGStab:  Solving for Ux, Initial residual = 0.00036977, Final residual = 4.60726e-08, No Iterations 1
DILUPBiCGStab:  Solving for Uy, Initial residual = 0.00252706, Final residual = 2.34921e-07, No Iterations 1
DILUPBiCGStab:  Solving for Uz, Initial residual = 1.77501e-05, Final residual = 2.90476e-09, No Iterations 1
GAMG:  Solving for p_rgh, Initial residual = 0.0210516, Final residual = 0.000363202, No Iterations 1
time step continuity errors : sum local = 3.80608e-09, global = -4.48583e-15, cumulative = 1.82114e-09
GAMG:  Solving for p_rgh, Initial residual = 0.000703627, Final residual = 5.76982e-08, No Iterations 10
time step continuity errors : sum local = 5.99613e-13, global = -5.62434e-13, cumulative = 1.82058e-09
PIMPLE: Iteration 2
smoothSolver:  Solving for alpha.water, Initial residual = 1.51845e-06, Final residual = 1.07241e-09, No Iterations 1
Phase-1 volume fraction = 0.13505  Min(alpha.water) = -4.82572e-20  Max(alpha.water) = 1
MULES: Correcting alpha.water
Phase-1 volume fraction = 0.13505  Min(alpha.water) = -4.82572e-20  Max(alpha.water) = 1
DILUPBiCGStab:  Solving for T, Initial residual = 0.0984523, Final residual = 7.96038e-10, No Iterations 1
min/max(T) = 300 , 300
DILUPBiCGStab:  Solving for Ux, Initial residual = 1.79272e-05, Final residual = 6.64304e-09, No Iterations 1
DILUPBiCGStab:  Solving for Uy, Initial residual = 0.000690193, Final residual = 1.21443e-07, No Iterations 1
DILUPBiCGStab:  Solving for Uz, Initial residual = 1.03349e-06, Final residual = 5.77523e-10, No Iterations 1
GAMG:  Solving for p_rgh, Initial residual = 0.00685972, Final residual = 0.000300959, No Iterations 1
time step continuity errors : sum local = 3.15552e-09, global = 5.14528e-12, cumulative = 1.82573e-09
GAMG:  Solving for p_rgh, Initial residual = 0.000666794, Final residual = 6.2549e-08, No Iterations 10
time step continuity errors : sum local = 6.53624e-13, global = 6.21608e-13, cumulative = 1.82635e-09
ExecutionTime = 1.3652 s  ClockTime = 1 s

Courant Number mean: 4.1147e-05 max: 0.10834
Interface Courant Number mean: 2.36007e-06 max: 0.101071
Diffusion number maximum: 49.2948
deltaT = 9.78261e-06
Time = 0.000107609s

PIMPLE: Iteration 1
smoothSolver:  Solving for alpha.water, Initial residual = 1.94819e-06, Final residual = 2.08525e-09, No Iterations 1
Phase-1 volume fraction = 0.13505  Min(alpha.water) = -4.39105e-20  Max(alpha.water) = 1
MULES: Correcting alpha.water
Phase-1 volume fraction = 0.13505  Min(alpha.water) = -4.39105e-20  Max(alpha.water) = 1
DILUPBiCGStab:  Solving for T, Initial residual = 0.0794416, Final residual = 7.26188e-10, No Iterations 1
min/max(T) = 300 , 300
DILUPBiCGStab:  Solving for Ux, Initial residual = 0.000362267, Final residual = 4.54259e-08, No Iterations 1
DILUPBiCGStab:  Solving for Uy, Initial residual = 0.00174066, Final residual = 1.55163e-07, No Iterations 1
DILUPBiCGStab:  Solving for Uz, Initial residual = 1.71611e-05, Final residual = 2.6627e-09, No Iterations 1
GAMG:  Solving for p_rgh, Initial residual = 0.0190113, Final residual = 0.000422515, No Iterations 1
time step continuity errors : sum local = 4.48521e-09, global = 1.19993e-13, cumulative = 1.82647e-09
GAMG:  Solving for p_rgh, Initial residual = 0.000819578, Final residual = 8.39932e-08, No Iterations 10
time step continuity errors : sum local = 8.85599e-13, global = -8.38956e-13, cumulative = 1.82563e-09
PIMPLE: Iteration 2
smoothSolver:  Solving for alpha.water, Initial residual = 1.41316e-06, Final residual = 9.29156e-10, No Iterations 1
Phase-1 volume fraction = 0.13505  Min(alpha.water) = -4.38286e-20  Max(alpha.water) = 1
MULES: Correcting alpha.water
Phase-1 volume fraction = 0.13505  Min(alpha.water) = -4.38286e-20  Max(alpha.water) = 1
DILUPBiCGStab:  Solving for T, Initial residual = 0.0881751, Final residual = 6.98136e-10, No Iterations 1
min/max(T) = 300 , 300
DILUPBiCGStab:  Solving for Ux, Initial residual = 1.65238e-05, Final residual = 7.36793e-09, No Iterations 1
DILUPBiCGStab:  Solving for Uy, Initial residual = 0.000330117, Final residual = 5.66977e-08, No Iterations 1
DILUPBiCGStab:  Solving for Uz, Initial residual = 1.03231e-06, Final residual = 6.34693e-10, No Iterations 1
GAMG:  Solving for p_rgh, Initial residual = 0.00638876, Final residual = 0.00031404, No Iterations 1
time step continuity errors : sum local = 3.34756e-09, global = 6.03595e-12, cumulative = 1.83167e-09
GAMG:  Solving for p_rgh, Initial residual = 0.000676957, Final residual = 6.13953e-08, No Iterations 10
time step continuity errors : sum local = 6.52517e-13, global = 6.19831e-13, cumulative = 1.83229e-09
ExecutionTime = 1.49273 s  ClockTime = 1 s

Courant Number mean: 4.15962e-05 max: 0.106654
Interface Courant Number mean: 2.36604e-06 max: 0.101151
Diffusion number maximum: 49.2948
deltaT = 9.78261e-06
Time = 0.000117391s

PIMPLE: Iteration 1
smoothSolver:  Solving for alpha.water, Initial residual = 1.95164e-06, Final residual = 2.06409e-09, No Iterations 1
Phase-1 volume fraction = 0.13505  Min(alpha.water) = -3.98048e-20  Max(alpha.water) = 1
MULES: Correcting alpha.water
Phase-1 volume fraction = 0.13505  Min(alpha.water) = -3.98048e-20  Max(alpha.water) = 1
DILUPBiCGStab:  Solving for T, Initial residual = 0.0737828, Final residual = 5.69916e-10, No Iterations 1
min/max(T) = 300 , 300
DILUPBiCGStab:  Solving for Ux, Initial residual = 0.000361338, Final residual = 4.58982e-08, No Iterations 1
DILUPBiCGStab:  Solving for Uy, Initial residual = 0.000970426, Final residual = 1.20385e-07, No Iterations 1
DILUPBiCGStab:  Solving for Uz, Initial residual = 1.70935e-05, Final residual = 2.49593e-09, No Iterations 1
GAMG:  Solving for p_rgh, Initial residual = 0.0194281, Final residual = 0.00037926, No Iterations 1
time step continuity errors : sum local = 4.02661e-09, global = -1.3048e-12, cumulative = 1.83098e-09
GAMG:  Solving for p_rgh, Initial residual = 0.000814628, Final residual = 7.10907e-08, No Iterations 10
time step continuity errors : sum local = 7.47675e-13, global = -7.0771e-13, cumulative = 1.83027e-09
PIMPLE: Iteration 2
smoothSolver:  Solving for alpha.water, Initial residual = 1.29014e-06, Final residual = 8.1443e-10, No Iterations 1
Phase-1 volume fraction = 0.13505  Min(alpha.water) = -3.97414e-20  Max(alpha.water) = 1
MULES: Correcting alpha.water
Phase-1 volume fraction = 0.13505  Min(alpha.water) = -3.97414e-20  Max(alpha.water) = 1
DILUPBiCGStab:  Solving for T, Initial residual = 0.0784484, Final residual = 7.13536e-10, No Iterations 1
min/max(T) = 300 , 300
DILUPBiCGStab:  Solving for Ux, Initial residual = 1.60476e-05, Final residual = 8.12773e-09, No Iterations 1
DILUPBiCGStab:  Solving for Uy, Initial residual = 0.000150016, Final residual = 3.29944e-08, No Iterations 1
DILUPBiCGStab:  Solving for Uz, Initial residual = 1.0153e-06, Final residual = 7.05508e-10, No Iterations 1
GAMG:  Solving for p_rgh, Initial residual = 0.00678825, Final residual = 0.000348218, No Iterations 1
time step continuity errors : sum local = 3.69925e-09, global = 7.19262e-12, cumulative = 1.83747e-09
GAMG:  Solving for p_rgh, Initial residual = 0.000717417, Final residual = 6.92134e-08, No Iterations 10
time step continuity errors : sum local = 7.32706e-13, global = 6.96323e-13, cumulative = 1.83816e-09
ExecutionTime = 1.61845 s  ClockTime = 1 s

Courant Number mean: 4.20334e-05 max: 0.105338
Interface Courant Number mean: 2.37034e-06 max: 0.101135
Diffusion number maximum: 49.2948
deltaT = 9.78261e-06
Time = 0.000127174s

PIMPLE: Iteration 1
smoothSolver:  Solving for alpha.water, Initial residual = 1.95358e-06, Final residual = 2.04179e-09, No Iterations 1
Phase-1 volume fraction = 0.13505  Min(alpha.water) = -3.60339e-20  Max(alpha.water) = 1
MULES: Correcting alpha.water
Phase-1 volume fraction = 0.13505  Min(alpha.water) = -3.60339e-20  Max(alpha.water) = 1
DILUPBiCGStab:  Solving for T, Initial residual = 0.068562, Final residual = 6.63329e-10, No Iterations 1
min/max(T) = 300 , 300
DILUPBiCGStab:  Solving for Ux, Initial residual = 0.000357464, Final residual = 5.08138e-08, No Iterations 1
DILUPBiCGStab:  Solving for Uy, Initial residual = 0.0009345, Final residual = 1.04524e-07, No Iterations 1
DILUPBiCGStab:  Solving for Uz, Initial residual = 1.71091e-05, Final residual = 2.65898e-09, No Iterations 1
GAMG:  Solving for p_rgh, Initial residual = 0.0202749, Final residual = 0.000407775, No Iterations 1
time step continuity errors : sum local = 4.25237e-09, global = -4.01554e-12, cumulative = 1.83415e-09
GAMG:  Solving for p_rgh, Initial residual = 0.000842318, Final residual = 6.99466e-08, No Iterations 10
time step continuity errors : sum local = 7.23114e-13, global = -6.84737e-13, cumulative = 1.83346e-09
PIMPLE: Iteration 2
smoothSolver:  Solving for alpha.water, Initial residual = 1.16292e-06, Final residual = 7.86107e-10, No Iterations 1
Phase-1 volume fraction = 0.13505  Min(alpha.water) = -3.5989e-20  Max(alpha.water) = 1
MULES: Correcting alpha.water
Phase-1 volume fraction = 0.13505  Min(alpha.water) = -3.5989e-20  Max(alpha.water) = 1
DILUPBiCGStab:  Solving for T, Initial residual = 0.0767363, Final residual = 7.3592e-10, No Iterations 1
min/max(T) = 300 , 300
DILUPBiCGStab:  Solving for Ux, Initial residual = 1.58579e-05, Final residual = 6.14355e-09, No Iterations 1
DILUPBiCGStab:  Solving for Uy, Initial residual = 0.000203842, Final residual = 2.51319e-08, No Iterations 1
DILUPBiCGStab:  Solving for Uz, Initial residual = 1.00278e-06, Final residual = 6.15899e-10, No Iterations 1
GAMG:  Solving for p_rgh, Initial residual = 0.00651241, Final residual = 0.000326451, No Iterations 1
time step continuity errors : sum local = 3.4145e-09, global = 7.03002e-12, cumulative = 1.84049e-09
GAMG:  Solving for p_rgh, Initial residual = 0.00069232, Final residual = 6.66031e-08, No Iterations 10
time step continuity errors : sum local = 6.94305e-13, global = 6.59854e-13, cumulative = 1.84115e-09
ExecutionTime = 1.74357 s  ClockTime = 1 s

Courant Number mean: 4.2452e-05 max: 0.104945
Interface Courant Number mean: 2.53454e-06 max: 0.101142
Diffusion number maximum: 49.2948
deltaT = 9.78261e-06
Time = 0.000136957s

PIMPLE: Iteration 1
smoothSolver:  Solving for alpha.water, Initial residual = 1.9538e-06, Final residual = 2.01187e-09, No Iterations 1
Phase-1 volume fraction = 0.13505  Min(alpha.water) = -3.25897e-20  Max(alpha.water) = 1
MULES: Correcting alpha.water
Phase-1 volume fraction = 0.13505  Min(alpha.water) = -3.25897e-20  Max(alpha.water) = 1
DILUPBiCGStab:  Solving for T, Initial residual = 0.0620141, Final residual = 6.54842e-10, No Iterations 1
min/max(T) = 300 , 300
DILUPBiCGStab:  Solving for Ux, Initial residual = 0.000365597, Final residual = 6.23416e-08, No Iterations 1
DILUPBiCGStab:  Solving for Uy, Initial residual = 0.000780026, Final residual = 1.42275e-07, No Iterations 1
DILUPBiCGStab:  Solving for Uz, Initial residual = 1.7714e-05, Final residual = 3.36621e-09, No Iterations 1
GAMG:  Solving for p_rgh, Initial residual = 0.0199886, Final residual = 0.000495352, No Iterations 1
time step continuity errors : sum local = 5.07418e-09, global = -6.5042e-12, cumulative = 1.83465e-09
GAMG:  Solving for p_rgh, Initial residual = 0.000939735, Final residual = 8.81323e-08, No Iterations 10
time step continuity errors : sum local = 8.93157e-13, global = -8.46556e-13, cumulative = 1.8338e-09
PIMPLE: Iteration 2
smoothSolver:  Solving for alpha.water, Initial residual = 1.18252e-06, Final residual = 9.6047e-10, No Iterations 1
Phase-1 volume fraction = 0.13505  Min(alpha.water) = -3.25614e-20  Max(alpha.water) = 1
MULES: Correcting alpha.water
Phase-1 volume fraction = 0.13505  Min(alpha.water) = -3.25614e-20  Max(alpha.water) = 1
DILUPBiCGStab:  Solving for T, Initial residual = 0.0688707, Final residual = 7.05987e-10, No Iterations 1
min/max(T) = 300 , 300
DILUPBiCGStab:  Solving for Ux, Initial residual = 1.83477e-05, Final residual = 6.38677e-09, No Iterations 1
DILUPBiCGStab:  Solving for Uy, Initial residual = 9.55217e-05, Final residual = 3.68966e-08, No Iterations 1
DILUPBiCGStab:  Solving for Uz, Initial residual = 1.00576e-06, Final residual = 5.71776e-10, No Iterations 1
GAMG:  Solving for p_rgh, Initial residual = 0.0064353, Final residual = 0.000286516, No Iterations 1
time step continuity errors : sum local = 2.95312e-09, global = 6.70165e-12, cumulative = 1.8405e-09
GAMG:  Solving for p_rgh, Initial residual = 0.000653114, Final residual = 6.13501e-08, No Iterations 10
time step continuity errors : sum local = 6.3063e-13, global = 5.99633e-13, cumulative = 1.8411e-09
ExecutionTime = 1.8681 s  ClockTime = 2 s

Courant Number mean: 4.28896e-05 max: 0.106288
Interface Courant Number mean: 2.94083e-06 max: 0.101518
Diffusion number maximum: 49.2947
deltaT = 9.78261e-06
Time = 0.000146739s

PIMPLE: Iteration 1
smoothSolver:  Solving for alpha.water, Initial residual = 1.95227e-06, Final residual = 1.9732e-09, No Iterations 1
Phase-1 volume fraction = 0.13505  Min(alpha.water) = -2.94595e-20  Max(alpha.water) = 1
MULES: Correcting alpha.water
Phase-1 volume fraction = 0.13505  Min(alpha.water) = -2.94595e-20  Max(alpha.water) = 1
DILUPBiCGStab:  Solving for T, Initial residual = 0.0599498, Final residual = 5.92721e-10, No Iterations 1
min/max(T) = 300 , 300
DILUPBiCGStab:  Solving for Ux, Initial residual = 0.000379952, Final residual = 5.90085e-08, No Iterations 1
DILUPBiCGStab:  Solving for Uy, Initial residual = 0.000586759, Final residual = 9.84152e-08, No Iterations 1
DILUPBiCGStab:  Solving for Uz, Initial residual = 1.84699e-05, Final residual = 3.04269e-09, No Iterations 1
GAMG:  Solving for p_rgh, Initial residual = 0.0192809, Final residual = 0.000293393, No Iterations 1
time step continuity errors : sum local = 2.97376e-09, global = -2.12999e-12, cumulative = 1.83897e-09
GAMG:  Solving for p_rgh, Initial residual = 0.000804782, Final residual = 9.63091e-08, No Iterations 9
time step continuity errors : sum local = 9.58361e-13, global = -8.8225e-13, cumulative = 1.83809e-09
PIMPLE: Iteration 2
smoothSolver:  Solving for alpha.water, Initial residual = 1.35332e-06, Final residual = 1.11727e-09, No Iterations 1
Phase-1 volume fraction = 0.13505  Min(alpha.water) = -2.94455e-20  Max(alpha.water) = 1
MULES: Correcting alpha.water
Phase-1 volume fraction = 0.13505  Min(alpha.water) = -4.44862e-18  Max(alpha.water) = 1
DILUPBiCGStab:  Solving for T, Initial residual = 0.0657432, Final residual = 5.60991e-10, No Iterations 1
min/max(T) = 300 , 300
DILUPBiCGStab:  Solving for Ux, Initial residual = 2.11768e-05, Final residual = 6.40262e-09, No Iterations 1
DILUPBiCGStab:  Solving for Uy, Initial residual = 6.99495e-05, Final residual = 1.02928e-08, No Iterations 1
DILUPBiCGStab:  Solving for Uz, Initial residual = 1.16211e-06, Final residual = 6.23262e-10, No Iterations 1
GAMG:  Solving for p_rgh, Initial residual = 0.00613413, Final residual = 0.000230628, No Iterations 1
time step continuity errors : sum local = 2.31405e-09, global = 5.99244e-12, cumulative = 1.84408e-09
GAMG:  Solving for p_rgh, Initial residual = 0.000595595, Final residual = 5.09217e-08, No Iterations 10
time step continuity errors : sum local = 5.09566e-13, global = 4.84589e-13, cumulative = 1.84457e-09
ExecutionTime = 1.98943 s  ClockTime = 2 s

Courant Number mean: 4.32986e-05 max: 0.108373
Interface Courant Number mean: 2.90967e-06 max: 0.101875
Diffusion number maximum: 49.2947
deltaT = 9.78261e-06
Time = 0.000156522s

PIMPLE: Iteration 1
smoothSolver:  Solving for alpha.water, Initial residual = 1.94978e-06, Final residual = 1.93935e-09, No Iterations 1
Phase-1 volume fraction = 0.13505  Min(alpha.water) = -2.66269e-20  Max(alpha.water) = 1
MULES: Correcting alpha.water
Phase-1 volume fraction = 0.13505  Min(alpha.water) = -2.66269e-20  Max(alpha.water) = 1
DILUPBiCGStab:  Solving for T, Initial residual = 0.0574962, Final residual = 5.01837e-10, No Iterations 1
min/max(T) = 300 , 300
DILUPBiCGStab:  Solving for Ux, Initial residual = 0.000377835, Final residual = 5.8588e-08, No Iterations 1
DILUPBiCGStab:  Solving for Uy, Initial residual = 0.000478006, Final residual = 1.11369e-07, No Iterations 1
DILUPBiCGStab:  Solving for Uz, Initial residual = 1.86246e-05, Final residual = 2.97842e-09, No Iterations 1
GAMG:  Solving for p_rgh, Initial residual = 0.0203136, Final residual = 0.000275713, No Iterations 1
time step continuity errors : sum local = 2.74738e-09, global = -9.50357e-13, cumulative = 1.84362e-09
GAMG:  Solving for p_rgh, Initial residual = 0.000830939, Final residual = 6.13155e-08, No Iterations 8
time step continuity errors : sum local = 6.13605e-13, global = 5.08523e-13, cumulative = 1.84412e-09
PIMPLE: Iteration 2
smoothSolver:  Solving for alpha.water, Initial residual = 1.49772e-06, Final residual = 1.20187e-09, No Iterations 1
Phase-1 volume fraction = 0.13505  Min(alpha.water) = -2.66345e-20  Max(alpha.water) = 1
MULES: Correcting alpha.water
Phase-1 volume fraction = 0.13505  Min(alpha.water) = -2.66345e-20  Max(alpha.water) = 1
DILUPBiCGStab:  Solving for T, Initial residual = 0.0582824, Final residual = 5.89586e-10, No Iterations 1
min/max(T) = 300 , 300
DILUPBiCGStab:  Solving for Ux, Initial residual = 2.26912e-05, Final residual = 6.40025e-09, No Iterations 1
DILUPBiCGStab:  Solving for Uy, Initial residual = 0.000131485, Final residual = 1.53892e-08, No Iterations 1
DILUPBiCGStab:  Solving for Uz, Initial residual = 1.28918e-06, Final residual = 5.80575e-10, No Iterations 1
GAMG:  Solving for p_rgh, Initial residual = 0.00534956, Final residual = 0.000200728, No Iterations 1
time step continuity errors : sum local = 2.01263e-09, global = 5.34326e-12, cumulative = 1.84947e-09
GAMG:  Solving for p_rgh, Initial residual = 0.000533495, Final residual = 9.46008e-08, No Iterations 9
time step continuity errors : sum local = 9.49208e-13, global = 8.84485e-13, cumulative = 1.85035e-09
ExecutionTime = 2.11252 s  ClockTime = 2 s

Courant Number mean: 4.36482e-05 max: 0.109288
Interface Courant Number mean: 2.91213e-06 max: 0.102137
Diffusion number maximum: 49.2947
deltaT = 9.78261e-06
Time = 0.000166304s

PIMPLE: Iteration 1
smoothSolver:  Solving for alpha.water, Initial residual = 1.94744e-06, Final residual = 1.9081e-09, No Iterations 1
Phase-1 volume fraction = 0.13505  Min(alpha.water) = -2.4099e-20  Max(alpha.water) = 1
MULES: Correcting alpha.water
Phase-1 volume fraction = 0.13505  Min(alpha.water) = -3.47548e-20  Max(alpha.water) = 1
DILUPBiCGStab:  Solving for T, Initial residual = 0.0525654, Final residual = 5.00567e-10, No Iterations 1
min/max(T) = 300 , 300
DILUPBiCGStab:  Solving for Ux, Initial residual = 0.000369713, Final residual = 5.26175e-08, No Iterations 1
DILUPBiCGStab:  Solving for Uy, Initial residual = 0.000356049, Final residual = 7.84902e-08, No Iterations 1
DILUPBiCGStab:  Solving for Uz, Initial residual = 1.81238e-05, Final residual = 2.76521e-09, No Iterations 1
GAMG:  Solving for p_rgh, Initial residual = 0.0314458, Final residual = 0.000564807, No Iterations 1
time step continuity errors : sum local = 5.75473e-09, global = 9.83276e-14, cumulative = 1.85045e-09
GAMG:  Solving for p_rgh, Initial residual = 0.00110854, Final residual = 7.80523e-08, No Iterations 10
time step continuity errors : sum local = 7.98694e-13, global = 7.58227e-13, cumulative = 1.85121e-09
PIMPLE: Iteration 2
smoothSolver:  Solving for alpha.water, Initial residual = 1.59231e-06, Final residual = 1.20595e-09, No Iterations 1
Phase-1 volume fraction = 0.13505  Min(alpha.water) = -2.41608e-20  Max(alpha.water) = 1
MULES: Correcting alpha.water
Phase-1 volume fraction = 0.13505  Min(alpha.water) = -2.41608e-20  Max(alpha.water) = 1
DILUPBiCGStab:  Solving for T, Initial residual = 0.0598912, Final residual = 4.92847e-10, No Iterations 1
min/max(T) = 300 , 300
DILUPBiCGStab:  Solving for Ux, Initial residual = 2.41276e-05, Final residual = 5.55802e-09, No Iterations 1
DILUPBiCGStab:  Solving for Uy, Initial residual = 9.87443e-05, Final residual = 1.56073e-08, No Iterations 1
DILUPBiCGStab:  Solving for Uz, Initial residual = 9.31344e-07, Final residual = 9.31344e-07, No Iterations 0
GAMG:  Solving for p_rgh, Initial residual = 0.00479312, Final residual = 0.00018662, No Iterations 1
time step continuity errors : sum local = 1.90845e-09, global = 5.32482e-12, cumulative = 1.85653e-09
GAMG:  Solving for p_rgh, Initial residual = 0.000338125, Final residual = 9.0121e-08, No Iterations 9
time step continuity errors : sum local = 9.21753e-13, global = 8.57652e-13, cumulative = 1.85739e-09
ExecutionTime = 2.23872 s  ClockTime = 2 s

Courant Number mean: 4.38708e-05 max: 0.109294
Interface Courant Number mean: 2.82974e-06 max: 0.102318
Diffusion number maximum: 49.2947
deltaT = 9.78261e-06
Time = 0.000176087s

PIMPLE: Iteration 1
smoothSolver:  Solving for alpha.water, Initial residual = 1.94985e-06, Final residual = 1.88345e-09, No Iterations 1
Phase-1 volume fraction = 0.13505  Min(alpha.water) = -2.19176e-20  Max(alpha.water) = 1
MULES: Correcting alpha.water
Phase-1 volume fraction = 0.13505  Min(alpha.water) = -2.19176e-20  Max(alpha.water) = 1
DILUPBiCGStab:  Solving for T, Initial residual = 0.0496279, Final residual = 3.8144e-10, No Iterations 1
min/max(T) = 300 , 300
DILUPBiCGStab:  Solving for Ux, Initial residual = 0.000365111, Final residual = 5.00956e-08, No Iterations 1
DILUPBiCGStab:  Solving for Uy, Initial residual = 0.000286326, Final residual = 4.79635e-08, No Iterations 1
DILUPBiCGStab:  Solving for Uz, Initial residual = 1.84021e-05, Final residual = 2.63772e-09, No Iterations 1
GAMG:  Solving for p_rgh, Initial residual = 0.0214528, Final residual = 0.000463914, No Iterations 1
time step continuity errors : sum local = 4.69356e-09, global = 2.00829e-13, cumulative = 1.85759e-09
GAMG:  Solving for p_rgh, Initial residual = 0.000868361, Final residual = 9.21431e-08, No Iterations 9
time step continuity errors : sum local = 9.3114e-13, global = -8.32864e-13, cumulative = 1.85676e-09
PIMPLE: Iteration 2
smoothSolver:  Solving for alpha.water, Initial residual = 1.63486e-06, Final residual = 1.17518e-09, No Iterations 1
Phase-1 volume fraction = 0.13505  Min(alpha.water) = -2.19594e-20  Max(alpha.water) = 1
MULES: Correcting alpha.water
Phase-1 volume fraction = 0.13505  Min(alpha.water) = -2.19594e-20  Max(alpha.water) = 1
DILUPBiCGStab:  Solving for T, Initial residual = 0.0570637, Final residual = 5.00157e-10, No Iterations 1
min/max(T) = 300 , 300
DILUPBiCGStab:  Solving for Ux, Initial residual = 2.38813e-05, Final residual = 5.94069e-09, No Iterations 1
DILUPBiCGStab:  Solving for Uy, Initial residual = 4.55503e-05, Final residual = 6.32823e-09, No Iterations 1
DILUPBiCGStab:  Solving for Uz, Initial residual = 1.23084e-06, Final residual = 6.05655e-10, No Iterations 1
GAMG:  Solving for p_rgh, Initial residual = 0.00565545, Final residual = 0.000257529, No Iterations 1
time step continuity errors : sum local = 2.61467e-09, global = 5.84338e-12, cumulative = 1.8626e-09
GAMG:  Solving for p_rgh, Initial residual = 0.000594258, Final residual = 5.90241e-08, No Iterations 10
time step continuity errors : sum local = 5.99212e-13, global = 5.69782e-13, cumulative = 1.86317e-09
ExecutionTime = 2.36214 s  ClockTime = 2 s

Courant Number mean: 4.40216e-05 max: 0.108788
Interface Courant Number mean: 2.55487e-06 max: 0.102525
Diffusion number maximum: 49.2947
deltaT = 9.78261e-06
Time = 0.00018587s

PIMPLE: Iteration 1
smoothSolver:  Solving for alpha.water, Initial residual = 1.95549e-06, Final residual = 1.86489e-09, No Iterations 1
Phase-1 volume fraction = 0.13505  Min(alpha.water) = -1.99648e-20  Max(alpha.water) = 1
MULES: Correcting alpha.water
Phase-1 volume fraction = 0.13505  Min(alpha.water) = -1.99648e-20  Max(alpha.water) = 1
DILUPBiCGStab:  Solving for T, Initial residual = 0.0477915, Final residual = 4.18366e-10, No Iterations 1
min/max(T) = 300 , 300
DILUPBiCGStab:  Solving for Ux, Initial residual = 0.000360195, Final residual = 4.8984e-08, No Iterations 1
DILUPBiCGStab:  Solving for Uy, Initial residual = 0.000241424, Final residual = 3.02204e-08, No Iterations 1
DILUPBiCGStab:  Solving for Uz, Initial residual = 1.78648e-05, Final residual = 2.43798e-09, No Iterations 1
GAMG:  Solving for p_rgh, Initial residual = 0.0242747, Final residual = 0.000431001, No Iterations 1
time step continuity errors : sum local = 4.51845e-09, global = -2.31423e-12, cumulative = 1.86086e-09
GAMG:  Solving for p_rgh, Initial residual = 0.000886174, Final residual = 5.80423e-08, No Iterations 9
time step continuity errors : sum local = 5.9934e-13, global = -5.09076e-13, cumulative = 1.86035e-09
PIMPLE: Iteration 2
smoothSolver:  Solving for alpha.water, Initial residual = 1.62549e-06, Final residual = 1.0802e-09, No Iterations 1
Phase-1 volume fraction = 0.13505  Min(alpha.water) = -1.99986e-20  Max(alpha.water) = 1
MULES: Correcting alpha.water
Phase-1 volume fraction = 0.13505  Min(alpha.water) = -1.99986e-20  Max(alpha.water) = 1
DILUPBiCGStab:  Solving for T, Initial residual = 0.0538885, Final residual = 4.65112e-10, No Iterations 1
min/max(T) = 300 , 300
DILUPBiCGStab:  Solving for Ux, Initial residual = 1.63495e-05, Final residual = 6.27821e-09, No Iterations 1
DILUPBiCGStab:  Solving for Uy, Initial residual = 5.92016e-05, Final residual = 8.39764e-09, No Iterations 1
DILUPBiCGStab:  Solving for Uz, Initial residual = 9.53803e-07, Final residual = 9.53803e-07, No Iterations 0
GAMG:  Solving for p_rgh, Initial residual = 0.00514356, Final residual = 0.000239, No Iterations 1
time step continuity errors : sum local = 2.47895e-09, global = 5.65308e-12, cumulative = 1.866e-09
GAMG:  Solving for p_rgh, Initial residual = 0.000385989, Final residual = 5.61865e-08, No Iterations 10
time step continuity errors : sum local = 5.81404e-13, global = 5.52688e-13, cumulative = 1.86656e-09
ExecutionTime = 2.49418 s  ClockTime = 2 s

Courant Number mean: 4.40976e-05 max: 0.108014
Interface Courant Number mean: 2.55667e-06 max: 0.103382
Diffusion number maximum: 49.2947
deltaT = 9.78261e-06
Time = 0.000195652s

PIMPLE: Iteration 1
smoothSolver:  Solving for alpha.water, Initial residual = 1.95885e-06, Final residual = 1.84926e-09, No Iterations 1
Phase-1 volume fraction = 0.13505  Min(alpha.water) = -1.8214e-20  Max(alpha.water) = 1
MULES: Correcting alpha.water
Phase-1 volume fraction = 0.13505  Min(alpha.water) = -1.8214e-20  Max(alpha.water) = 1
DILUPBiCGStab:  Solving for T, Initial residual = 0.0485865, Final residual = 3.69233e-10, No Iterations 1
min/max(T) = 300 , 300
DILUPBiCGStab:  Solving for Ux, Initial residual = 0.000360576, Final residual = 4.87556e-08, No Iterations 1
DILUPBiCGStab:  Solving for Uy, Initial residual = 0.000203001, Final residual = 2.67737e-08, No Iterations 1
DILUPBiCGStab:  Solving for Uz, Initial residual = 1.76987e-05, Final residual = 2.33089e-09, No Iterations 1
GAMG:  Solving for p_rgh, Initial residual = 0.0186299, Final residual = 0.000435384, No Iterations 1
time step continuity errors : sum local = 4.46961e-09, global = -4.08746e-12, cumulative = 1.86247e-09
GAMG:  Solving for p_rgh, Initial residual = 0.000838222, Final residual = 9.45461e-08, No Iterations 10
time step continuity errors : sum local = 9.73593e-13, global = -9.2068e-13, cumulative = 1.86155e-09
PIMPLE: Iteration 2
smoothSolver:  Solving for alpha.water, Initial residual = 1.56385e-06, Final residual = 9.68169e-10, No Iterations 1
Phase-1 volume fraction = 0.13505  Min(alpha.water) = -1.8236e-20  Max(alpha.water) = 1
MULES: Correcting alpha.water
Phase-1 volume fraction = 0.13505  Min(alpha.water) = -1.8236e-20  Max(alpha.water) = 1
DILUPBiCGStab:  Solving for T, Initial residual = 0.0525793, Final residual = 4.65566e-10, No Iterations 1
min/max(T) = 300 , 300
DILUPBiCGStab:  Solving for Ux, Initial residual = 1.61784e-05, Final residual = 6.6988e-09, No Iterations 1
DILUPBiCGStab:  Solving for Uy, Initial residual = 4.17994e-05, Final residual = 4.13755e-09, No Iterations 1
DILUPBiCGStab:  Solving for Uz, Initial residual = 9.00594e-07, Final residual = 9.00594e-07, No Iterations 0
GAMG:  Solving for p_rgh, Initial residual = 0.00506505, Final residual = 0.000253498, No Iterations 1
time step continuity errors : sum local = 2.63792e-09, global = 4.6069e-12, cumulative = 1.86615e-09
GAMG:  Solving for p_rgh, Initial residual = 0.000406972, Final residual = 5.63134e-08, No Iterations 10
time step continuity errors : sum local = 5.83831e-13, global = 5.54325e-13, cumulative = 1.86671e-09
ExecutionTime = 2.61575 s  ClockTime = 2 s

Courant Number mean: 4.41965e-05 max: 0.107236
Interface Courant Number mean: 2.55796e-06 max: 0.104025
Diffusion number maximum: 49.2947
deltaT = 9.78261e-06
Time = 0.000205435s

PIMPLE: Iteration 1
smoothSolver:  Solving for alpha.water, Initial residual = 1.96062e-06, Final residual = 1.83312e-09, No Iterations 1
Phase-1 volume fraction = 0.13505  Min(alpha.water) = -1.663e-20  Max(alpha.water) = 1
MULES: Correcting alpha.water
Phase-1 volume fraction = 0.13505  Min(alpha.water) = -1.663e-20  Max(alpha.water) = 1
DILUPBiCGStab:  Solving for T, Initial residual = 0.0428967, Final residual = 3.81394e-10, No Iterations 1
min/max(T) = 300 , 300
DILUPBiCGStab:  Solving for Ux, Initial residual = 0.00035957, Final residual = 4.89322e-08, No Iterations 1
DILUPBiCGStab:  Solving for Uy, Initial residual = 0.000200419, Final residual = 2.40027e-08, No Iterations 1
DILUPBiCGStab:  Solving for Uz, Initial residual = 1.76458e-05, Final residual = 2.21332e-09, No Iterations 1
GAMG:  Solving for p_rgh, Initial residual = 0.0180937, Final residual = 0.000414819, No Iterations 1
time step continuity errors : sum local = 4.25107e-09, global = -1.79561e-12, cumulative = 1.86491e-09
GAMG:  Solving for p_rgh, Initial residual = 0.000839943, Final residual = 8.48774e-08, No Iterations 10
time step continuity errors : sum local = 8.704e-13, global = -8.2223e-13, cumulative = 1.86409e-09
PIMPLE: Iteration 2
smoothSolver:  Solving for alpha.water, Initial residual = 1.47001e-06, Final residual = 8.68776e-10, No Iterations 1
Phase-1 volume fraction = 0.13505  Min(alpha.water) = -1.66444e-20  Max(alpha.water) = 1
MULES: Correcting alpha.water
Phase-1 volume fraction = 0.13505  Min(alpha.water) = -1.66444e-20  Max(alpha.water) = 1
DILUPBiCGStab:  Solving for T, Initial residual = 0.0478709, Final residual = 4.12362e-10, No Iterations 1
min/max(T) = 300 , 300
DILUPBiCGStab:  Solving for Ux, Initial residual = 1.57162e-05, Final residual = 6.98725e-09, No Iterations 1
DILUPBiCGStab:  Solving for Uy, Initial residual = 3.34749e-05, Final residual = 2.81434e-09, No Iterations 1
DILUPBiCGStab:  Solving for Uz, Initial residual = 8.79593e-07, Final residual = 8.79593e-07, No Iterations 0
GAMG:  Solving for p_rgh, Initial residual = 0.00528381, Final residual = 0.000279589, No Iterations 1
time step continuity errors : sum local = 2.90147e-09, global = 4.81613e-12, cumulative = 1.86891e-09
GAMG:  Solving for p_rgh, Initial residual = 0.00045049, Final residual = 6.1592e-08, No Iterations 10
time step continuity errors : sum local = 6.36874e-13, global = 6.04648e-13, cumulative = 1.86951e-09
ExecutionTime = 2.73801 s  ClockTime = 2 s

Courant Number mean: 4.42963e-05 max: 0.106628
Interface Courant Number mean: 2.55847e-06 max: 0.104405
Diffusion number maximum: 49.2947
deltaT = 9.78261e-06
Time = 0.000215217s

PIMPLE: Iteration 1
smoothSolver:  Solving for alpha.water, Initial residual = 1.9613e-06, Final residual = 1.81672e-09, No Iterations 1
Phase-1 volume fraction = 0.13505  Min(alpha.water) = -1.51928e-20  Max(alpha.water) = 1
MULES: Correcting alpha.water
Phase-1 volume fraction = 0.13505  Min(alpha.water) = -1.51928e-20  Max(alpha.water) = 1
DILUPBiCGStab:  Solving for T, Initial residual = 0.0412812, Final residual = 4.06355e-10, No Iterations 1
min/max(T) = 300 , 300
DILUPBiCGStab:  Solving for Ux, Initial residual = 0.000360023, Final residual = 4.89684e-08, No Iterations 1
DILUPBiCGStab:  Solving for Uy, Initial residual = 0.000194175, Final residual = 2.23151e-08, No Iterations 1
DILUPBiCGStab:  Solving for Uz, Initial residual = 1.76386e-05, Final residual = 2.10666e-09, No Iterations 1
GAMG:  Solving for p_rgh, Initial residual = 0.018452, Final residual = 0.000408771, No Iterations 1
time step continuity errors : sum local = 4.18487e-09, global = -2.2072e-12, cumulative = 1.8673e-09
GAMG:  Solving for p_rgh, Initial residual = 0.000851915, Final residual = 8.60734e-08, No Iterations 10
time step continuity errors : sum local = 8.78717e-13, global = -8.31335e-13, cumulative = 1.86647e-09
PIMPLE: Iteration 2
smoothSolver:  Solving for alpha.water, Initial residual = 1.35305e-06, Final residual = 7.95937e-10, No Iterations 1
Phase-1 volume fraction = 0.13505  Min(alpha.water) = -1.52028e-20  Max(alpha.water) = 1
MULES: Correcting alpha.water
Phase-1 volume fraction = 0.13505  Min(alpha.water) = -1.52028e-20  Max(alpha.water) = 1
DILUPBiCGStab:  Solving for T, Initial residual = 0.0462686, Final residual = 4.544e-10, No Iterations 1
min/max(T) = 300 , 300
DILUPBiCGStab:  Solving for Ux, Initial residual = 1.57241e-05, Final residual = 7.15275e-09, No Iterations 1
DILUPBiCGStab:  Solving for Uy, Initial residual = 2.00782e-05, Final residual = 2.64986e-09, No Iterations 1
DILUPBiCGStab:  Solving for Uz, Initial residual = 8.58633e-07, Final residual = 8.58633e-07, No Iterations 0
GAMG:  Solving for p_rgh, Initial residual = 0.00534507, Final residual = 0.00027721, No Iterations 1
time step continuity errors : sum local = 2.86923e-09, global = 4.6653e-12, cumulative = 1.87114e-09
GAMG:  Solving for p_rgh, Initial residual = 0.000456832, Final residual = 5.90732e-08, No Iterations 10
time step continuity errors : sum local = 6.09633e-13, global = 5.78206e-13, cumulative = 1.87172e-09
ExecutionTime = 2.86314 s  ClockTime = 3 s

Courant Number mean: 4.44215e-05 max: 0.10605
Interface Courant Number mean: 2.71873e-06 max: 0.10463
Diffusion number maximum: 49.2947
deltaT = 9.78261e-06
Time = 0.000225s

PIMPLE: Iteration 1
smoothSolver:  Solving for alpha.water, Initial residual = 1.96091e-06, Final residual = 1.80087e-09, No Iterations 1
Phase-1 volume fraction = 0.13505  Min(alpha.water) = -1.38869e-20  Max(alpha.water) = 1
MULES: Correcting alpha.water
Phase-1 volume fraction = 0.13505  Min(alpha.water) = -1.38869e-20  Max(alpha.water) = 1
DILUPBiCGStab:  Solving for T, Initial residual = 0.0373364, Final residual = 3.6575e-10, No Iterations 1
min/max(T) = 300 , 300
DILUPBiCGStab:  Solving for Ux, Initial residual = 0.000364077, Final residual = 5.01003e-08, No Iterations 1
DILUPBiCGStab:  Solving for Uy, Initial residual = 0.000194851, Final residual = 2.05221e-08, No Iterations 1
DILUPBiCGStab:  Solving for Uz, Initial residual = 1.7802e-05, Final residual = 2.11391e-09, No Iterations 1
GAMG:  Solving for p_rgh, Initial residual = 0.0189692, Final residual = 0.000443158, No Iterations 1
time step continuity errors : sum local = 4.53466e-09, global = -3.28221e-12, cumulative = 1.86843e-09
GAMG:  Solving for p_rgh, Initial residual = 0.000939084, Final residual = 9.69626e-08, No Iterations 10
time step continuity errors : sum local = 9.89089e-13, global = -9.38272e-13, cumulative = 1.8675e-09
PIMPLE: Iteration 2
smoothSolver:  Solving for alpha.water, Initial residual = 1.22523e-06, Final residual = 7.77403e-10, No Iterations 1
Phase-1 volume fraction = 0.13505  Min(alpha.water) = -1.38952e-20  Max(alpha.water) = 1
MULES: Correcting alpha.water
Phase-1 volume fraction = 0.13505  Min(alpha.water) = -1.38952e-20  Max(alpha.water) = 1
DILUPBiCGStab:  Solving for T, Initial residual = 0.0428026, Final residual = 4.07461e-10, No Iterations 1
min/max(T) = 300 , 300
DILUPBiCGStab:  Solving for Ux, Initial residual = 1.58347e-05, Final residual = 6.69582e-09, No Iterations 1
DILUPBiCGStab:  Solving for Uy, Initial residual = 3.11991e-05, Final residual = 3.80177e-09, No Iterations 1
DILUPBiCGStab:  Solving for Uz, Initial residual = 8.85015e-07, Final residual = 8.85015e-07, No Iterations 0
GAMG:  Solving for p_rgh, Initial residual = 0.00505641, Final residual = 0.000262761, No Iterations 1
time step continuity errors : sum local = 2.72941e-09, global = 4.46774e-12, cumulative = 1.87196e-09
GAMG:  Solving for p_rgh, Initial residual = 0.000452063, Final residual = 5.68113e-08, No Iterations 10
time step continuity errors : sum local = 5.88696e-13, global = 5.58361e-13, cumulative = 1.87252e-09
ExecutionTime = 2.98828 s  ClockTime = 3 s

Courant Number mean: 4.46044e-05 max: 0.107212
Interface Courant Number mean: 2.72071e-06 max: 0.104761
Diffusion number maximum: 49.2947
deltaT = 9.78261e-06
Time = 0.000234783s

PIMPLE: Iteration 1
smoothSolver:  Solving for alpha.water, Initial residual = 1.95943e-06, Final residual = 1.78324e-09, No Iterations 1
Phase-1 volume fraction = 0.13505  Min(alpha.water) = -1.27009e-20  Max(alpha.water) = 1
MULES: Correcting alpha.water
Phase-1 volume fraction = 0.13505  Min(alpha.water) = -1.27009e-20  Max(alpha.water) = 1
DILUPBiCGStab:  Solving for T, Initial residual = 0.0378248, Final residual = 3.68912e-10, No Iterations 1
min/max(T) = 300 , 300
DILUPBiCGStab:  Solving for Ux, Initial residual = 0.000375711, Final residual = 5.76005e-08, No Iterations 1
DILUPBiCGStab:  Solving for Uy, Initial residual = 0.000204275, Final residual = 2.15937e-08, No Iterations 1
DILUPBiCGStab:  Solving for Uz, Initial residual = 1.83882e-05, Final residual = 2.7677e-09, No Iterations 1
GAMG:  Solving for p_rgh, Initial residual = 0.0186352, Final residual = 0.000467421, No Iterations 1
time step continuity errors : sum local = 4.75228e-09, global = -4.42614e-12, cumulative = 1.8681e-09
GAMG:  Solving for p_rgh, Initial residual = 0.000925406, Final residual = 8.98427e-08, No Iterations 10
time step continuity errors : sum local = 9.08073e-13, global = -8.60008e-13, cumulative = 1.86724e-09
PIMPLE: Iteration 2
smoothSolver:  Solving for alpha.water, Initial residual = 1.15926e-06, Final residual = 8.78912e-10, No Iterations 1
Phase-1 volume fraction = 0.13505  Min(alpha.water) = -1.27092e-20  Max(alpha.water) = 1
MULES: Correcting alpha.water
Phase-1 volume fraction = 0.13505  Min(alpha.water) = -1.27092e-20  Max(alpha.water) = 1
DILUPBiCGStab:  Solving for T, Initial residual = 0.042206, Final residual = 4.0559e-10, No Iterations 1
min/max(T) = 300 , 300
DILUPBiCGStab:  Solving for Ux, Initial residual = 1.69284e-05, Final residual = 5.24929e-09, No Iterations 1
DILUPBiCGStab:  Solving for Uy, Initial residual = 3.21521e-05, Final residual = 3.00321e-09, No Iterations 1
DILUPBiCGStab:  Solving for Uz, Initial residual = 9.08435e-07, Final residual = 9.08435e-07, No Iterations 0
GAMG:  Solving for p_rgh, Initial residual = 0.00476874, Final residual = 0.000241828, No Iterations 1
time step continuity errors : sum local = 2.49467e-09, global = 4.32519e-12, cumulative = 1.87156e-09
GAMG:  Solving for p_rgh, Initial residual = 0.000433254, Final residual = 5.36197e-08, No Iterations 10
time step continuity errors : sum local = 5.52284e-13, global = 5.23972e-13, cumulative = 1.87208e-09
ExecutionTime = 3.1138 s  ClockTime = 3 s

Courant Number mean: 4.48233e-05 max: 0.109391
Interface Courant Number mean: 2.95277e-06 max: 0.104832
Diffusion number maximum: 49.2946
deltaT = 9.78261e-06
Time = 0.000244565s

PIMPLE: Iteration 1
smoothSolver:  Solving for alpha.water, Initial residual = 1.95674e-06, Final residual = 1.75408e-09, No Iterations 1
Phase-1 volume fraction = 0.13505  Min(alpha.water) = -1.16252e-20  Max(alpha.water) = 1
MULES: Correcting alpha.water
Phase-1 volume fraction = 0.13505  Min(alpha.water) = -1.16252e-20  Max(alpha.water) = 1
DILUPBiCGStab:  Solving for T, Initial residual = 0.0364144, Final residual = 3.86384e-10, No Iterations 1
min/max(T) = 300 , 300
DILUPBiCGStab:  Solving for Ux, Initial residual = 0.000388693, Final residual = 5.46715e-08, No Iterations 1
DILUPBiCGStab:  Solving for Uy, Initial residual = 0.000214358, Final residual = 2.53618e-08, No Iterations 1
DILUPBiCGStab:  Solving for Uz, Initial residual = 1.88727e-05, Final residual = 2.63418e-09, No Iterations 1
GAMG:  Solving for p_rgh, Initial residual = 0.0180645, Final residual = 0.000273388, No Iterations 1
time step continuity errors : sum local = 2.76887e-09, global = -2.52394e-12, cumulative = 1.86956e-09
GAMG:  Solving for p_rgh, Initial residual = 0.000789994, Final residual = 5.42224e-08, No Iterations 10
time step continuity errors : sum local = 5.44671e-13, global = -5.14589e-13, cumulative = 1.86905e-09
PIMPLE: Iteration 2
smoothSolver:  Solving for alpha.water, Initial residual = 1.29882e-06, Final residual = 1.01059e-09, No Iterations 1
Phase-1 volume fraction = 0.13505  Min(alpha.water) = -1.16345e-20  Max(alpha.water) = 1
MULES: Correcting alpha.water
Phase-1 volume fraction = 0.13505  Min(alpha.water) = -1.16345e-20  Max(alpha.water) = 1
DILUPBiCGStab:  Solving for T, Initial residual = 0.0389074, Final residual = 4.29514e-10, No Iterations 1
min/max(T) = 300 , 300
DILUPBiCGStab:  Solving for Ux, Initial residual = 1.94671e-05, Final residual = 5.3206e-09, No Iterations 1
DILUPBiCGStab:  Solving for Uy, Initial residual = 3.70327e-05, Final residual = 3.51382e-09, No Iterations 1
DILUPBiCGStab:  Solving for Uz, Initial residual = 9.86606e-07, Final residual = 9.86606e-07, No Iterations 0
GAMG:  Solving for p_rgh, Initial residual = 0.00458275, Final residual = 0.000218679, No Iterations 1
time step continuity errors : sum local = 2.22431e-09, global = 4.32362e-12, cumulative = 1.87337e-09
GAMG:  Solving for p_rgh, Initial residual = 0.00039875, Final residual = 5.0472e-08, No Iterations 10
time step continuity errors : sum local = 5.124e-13, global = 4.86383e-13, cumulative = 1.87386e-09
ExecutionTime = 3.23929 s  ClockTime = 3 s

Courant Number mean: 4.5032e-05 max: 0.110801
Interface Courant Number mean: 2.8137e-06 max: 0.104828
Diffusion number maximum: 49.2946
deltaT = 9.78261e-06
Time = 0.000254348s

PIMPLE: Iteration 1
smoothSolver:  Solving for alpha.water, Initial residual = 1.95281e-06, Final residual = 1.72992e-09, No Iterations 1
Phase-1 volume fraction = 0.13505  Min(alpha.water) = -1.06518e-20  Max(alpha.water) = 1
MULES: Correcting alpha.water
Phase-1 volume fraction = 0.13505  Min(alpha.water) = -1.06518e-20  Max(alpha.water) = 1
DILUPBiCGStab:  Solving for T, Initial residual = 0.0333498, Final residual = 3.26698e-10, No Iterations 1
min/max(T) = 300 , 300
DILUPBiCGStab:  Solving for Ux, Initial residual = 0.00039781, Final residual = 5.58038e-08, No Iterations 1
DILUPBiCGStab:  Solving for Uy, Initial residual = 0.000189446, Final residual = 2.44338e-08, No Iterations 1
DILUPBiCGStab:  Solving for Uz, Initial residual = 1.91693e-05, Final residual = 2.67686e-09, No Iterations 1
GAMG:  Solving for p_rgh, Initial residual = 0.0178263, Final residual = 0.000206058, No Iterations 1
time step continuity errors : sum local = 2.0695e-09, global = -1.76616e-12, cumulative = 1.87209e-09
GAMG:  Solving for p_rgh, Initial residual = 0.000725034, Final residual = 6.90145e-08, No Iterations 9
time step continuity errors : sum local = 6.93563e-13, global = -6.30818e-13, cumulative = 1.87146e-09
PIMPLE: Iteration 2
smoothSolver:  Solving for alpha.water, Initial residual = 1.45241e-06, Final residual = 1.08249e-09, No Iterations 1
Phase-1 volume fraction = 0.13505  Min(alpha.water) = -1.06642e-20  Max(alpha.water) = 1
MULES: Correcting alpha.water
Phase-1 volume fraction = 0.13505  Min(alpha.water) = -2.22431e-18  Max(alpha.water) = 1
DILUPBiCGStab:  Solving for T, Initial residual = 0.0398659, Final residual = 3.67323e-10, No Iterations 1
min/max(T) = 300 , 300
DILUPBiCGStab:  Solving for Ux, Initial residual = 2.45328e-05, Final residual = 5.73379e-09, No Iterations 1
DILUPBiCGStab:  Solving for Uy, Initial residual = 2.57877e-05, Final residual = 2.92015e-09, No Iterations 1
DILUPBiCGStab:  Solving for Uz, Initial residual = 1.20959e-06, Final residual = 6.05198e-10, No Iterations 1
GAMG:  Solving for p_rgh, Initial residual = 0.00476128, Final residual = 0.000230525, No Iterations 1
time step continuity errors : sum local = 2.33438e-09, global = 3.62397e-12, cumulative = 1.87508e-09
GAMG:  Solving for p_rgh, Initial residual = 0.000500527, Final residual = 5.17845e-08, No Iterations 10
time step continuity errors : sum local = 5.23271e-13, global = 4.96827e-13, cumulative = 1.87558e-09
ExecutionTime = 3.36494 s  ClockTime = 3 s

Courant Number mean: 4.51963e-05 max: 0.111127
Interface Courant Number mean: 2.93569e-06 max: 0.104687
Diffusion number maximum: 49.2946
deltaT = 9.78261e-06
Time = 0.00026413s

PIMPLE: Iteration 1
smoothSolver:  Solving for alpha.water, Initial residual = 1.94862e-06, Final residual = 1.70838e-09, No Iterations 1
Phase-1 volume fraction = 0.13505  Min(alpha.water) = -2.03526e-18  Max(alpha.water) = 1
MULES: Correcting alpha.water
Phase-1 volume fraction = 0.13505  Min(alpha.water) = -2.03526e-18  Max(alpha.water) = 1
DILUPBiCGStab:  Solving for T, Initial residual = 0.0331964, Final residual = 3.49036e-10, No Iterations 1
min/max(T) = 300 , 300
DILUPBiCGStab:  Solving for Ux, Initial residual = 0.00040146, Final residual = 5.31046e-08, No Iterations 1
DILUPBiCGStab:  Solving for Uy, Initial residual = 0.00016276, Final residual = 1.408e-08, No Iterations 1
DILUPBiCGStab:  Solving for Uz, Initial residual = 1.86401e-05, Final residual = 2.48465e-09, No Iterations 1
GAMG:  Solving for p_rgh, Initial residual = 0.0220218, Final residual = 0.000361264, No Iterations 1
time step continuity errors : sum local = 3.6527e-09, global = -2.56573e-12, cumulative = 1.87301e-09
GAMG:  Solving for p_rgh, Initial residual = 0.000854062, Final residual = 6.26628e-08, No Iterations 9
time step continuity errors : sum local = 6.38865e-13, global = 5.92885e-13, cumulative = 1.87361e-09
PIMPLE: Iteration 2
smoothSolver:  Solving for alpha.water, Initial residual = 1.56305e-06, Final residual = 1.09313e-09, No Iterations 1
Phase-1 volume fraction = 0.13505  Min(alpha.water) = -2.03584e-18  Max(alpha.water) = 1
MULES: Correcting alpha.water
Phase-1 volume fraction = 0.13505  Min(alpha.water) = -2.03584e-18  Max(alpha.water) = 1
DILUPBiCGStab:  Solving for T, Initial residual = 0.0357205, Final residual = 3.32668e-10, No Iterations 1
min/max(T) = 300 , 300
DILUPBiCGStab:  Solving for Ux, Initial residual = 2.16565e-05, Final residual = 5.62204e-09, No Iterations 1
DILUPBiCGStab:  Solving for Uy, Initial residual = 4.26264e-05, Final residual = 3.31636e-09, No Iterations 1
DILUPBiCGStab:  Solving for Uz, Initial residual = 9.00848e-07, Final residual = 9.00848e-07, No Iterations 0
GAMG:  Solving for p_rgh, Initial residual = 0.0045374, Final residual = 0.000206219, No Iterations 1
time step continuity errors : sum local = 2.11021e-09, global = 3.88817e-12, cumulative = 1.8775e-09
GAMG:  Solving for p_rgh, Initial residual = 0.000336708, Final residual = 5.24321e-08, No Iterations 10
time step continuity errors : sum local = 5.35953e-13, global = 5.09238e-13, cumulative = 1.878e-09
ExecutionTime = 3.48894 s  ClockTime = 3 s

Courant Number mean: 4.52762e-05 max: 0.110761
Interface Courant Number mean: 2.88834e-06 max: 0.104513
Diffusion number maximum: 49.2945
deltaT = 9.78261e-06
Time = 0.000273913s

PIMPLE: Iteration 1
smoothSolver:  Solving for alpha.water, Initial residual = 1.94182e-06, Final residual = 1.69526e-09, No Iterations 1
Phase-1 volume fraction = 0.13505  Min(alpha.water) = -1.86361e-18  Max(alpha.water) = 1
MULES: Correcting alpha.water
Phase-1 volume fraction = 0.13505  Min(alpha.water) = -1.86361e-18  Max(alpha.water) = 1
DILUPBiCGStab:  Solving for T, Initial residual = 0.0330671, Final residual = 2.65361e-10, No Iterations 1
min/max(T) = 300 , 300
DILUPBiCGStab:  Solving for Ux, Initial residual = 0.000405621, Final residual = 5.12944e-08, No Iterations 1
DILUPBiCGStab:  Solving for Uy, Initial residual = 0.000184221, Final residual = 1.31509e-08, No Iterations 1
DILUPBiCGStab:  Solving for Uz, Initial residual = 1.88221e-05, Final residual = 2.3986e-09, No Iterations 1
GAMG:  Solving for p_rgh, Initial residual = 0.0224363, Final residual = 0.000497927, No Iterations 1
time step continuity errors : sum local = 5.09569e-09, global = -2.81148e-12, cumulative = 1.87519e-09
GAMG:  Solving for p_rgh, Initial residual = 0.000860456, Final residual = 7.61366e-08, No Iterations 10
time step continuity errors : sum local = 7.82717e-13, global = -7.27948e-13, cumulative = 1.87447e-09
PIMPLE: Iteration 2
smoothSolver:  Solving for alpha.water, Initial residual = 1.61978e-06, Final residual = 1.05629e-09, No Iterations 1
Phase-1 volume fraction = 0.13505  Min(alpha.water) = -1.86413e-18  Max(alpha.water) = 1
MULES: Correcting alpha.water
Phase-1 volume fraction = 0.13505  Min(alpha.water) = -1.86413e-18  Max(alpha.water) = 1
DILUPBiCGStab:  Solving for T, Initial residual = 0.0363956, Final residual = 3.27869e-10, No Iterations 1
min/max(T) = 300 , 300
DILUPBiCGStab:  Solving for Ux, Initial residual = 2.27539e-05, Final residual = 5.69067e-09, No Iterations 1
DILUPBiCGStab:  Solving for Uy, Initial residual = 4.49302e-05, Final residual = 3.61887e-09, No Iterations 1
DILUPBiCGStab:  Solving for Uz, Initial residual = 9.05218e-07, Final residual = 9.05218e-07, No Iterations 0
GAMG:  Solving for p_rgh, Initial residual = 0.00429503, Final residual = 0.000188668, No Iterations 1
time step continuity errors : sum local = 1.95587e-09, global = 2.96442e-12, cumulative = 1.87743e-09
GAMG:  Solving for p_rgh, Initial residual = 0.000314011, Final residual = 9.18079e-08, No Iterations 9
time step continuity errors : sum local = 9.50507e-13, global = 8.78392e-13, cumulative = 1.87831e-09
ExecutionTime = 3.61353 s  ClockTime = 3 s

Courant Number mean: 4.53734e-05 max: 0.110039
Interface Courant Number mean: 2.71509e-06 max: 0.104592
Diffusion number maximum: 49.2944
deltaT = 9.78261e-06
Time = 0.000283696s

PIMPLE: Iteration 1
smoothSolver:  Solving for alpha.water, Initial residual = 1.94435e-06, Final residual = 1.68871e-09, No Iterations 1
Phase-1 volume fraction = 0.13505  Min(alpha.water) = -1.7069e-18  Max(alpha.water) = 1
MULES: Correcting alpha.water
Phase-1 volume fraction = 0.13505  Min(alpha.water) = -1.7069e-18  Max(alpha.water) = 1
DILUPBiCGStab:  Solving for T, Initial residual = 0.0308026, Final residual = 2.9051e-10, No Iterations 1
min/max(T) = 300 , 300
DILUPBiCGStab:  Solving for Ux, Initial residual = 0.000405507, Final residual = 5.07712e-08, No Iterations 1
DILUPBiCGStab:  Solving for Uy, Initial residual = 0.000189929, Final residual = 1.56929e-08, No Iterations 1
DILUPBiCGStab:  Solving for Uz, Initial residual = 1.9112e-05, Final residual = 2.3646e-09, No Iterations 1
GAMG:  Solving for p_rgh, Initial residual = 0.01961, Final residual = 0.000407603, No Iterations 1
time step continuity errors : sum local = 4.17657e-09, global = -1.62752e-12, cumulative = 1.87668e-09
GAMG:  Solving for p_rgh, Initial residual = 0.000791811, Final residual = 5.83616e-08, No Iterations 10
time step continuity errors : sum local = 6.02341e-13, global = -5.61895e-13, cumulative = 1.87612e-09
PIMPLE: Iteration 2
smoothSolver:  Solving for alpha.water, Initial residual = 1.62612e-06, Final residual = 9.98591e-10, No Iterations 1
Phase-1 volume fraction = 0.13505  Min(alpha.water) = -1.70738e-18  Max(alpha.water) = 1
MULES: Correcting alpha.water
Phase-1 volume fraction = 0.13505  Min(alpha.water) = -1.70738e-18  Max(alpha.water) = 1
DILUPBiCGStab:  Solving for T, Initial residual = 0.0343415, Final residual = 3.42534e-10, No Iterations 1
min/max(T) = 300 , 300
DILUPBiCGStab:  Solving for Ux, Initial residual = 2.10759e-05, Final residual = 6.25072e-09, No Iterations 1
DILUPBiCGStab:  Solving for Uy, Initial residual = 2.4889e-05, Final residual = 3.42203e-09, No Iterations 1
DILUPBiCGStab:  Solving for Uz, Initial residual = 1.05688e-06, Final residual = 6.2278e-10, No Iterations 1
GAMG:  Solving for p_rgh, Initial residual = 0.00479099, Final residual = 0.000233665, No Iterations 1
time step continuity errors : sum local = 2.423e-09, global = 3.92513e-12, cumulative = 1.88004e-09
GAMG:  Solving for p_rgh, Initial residual = 0.000527836, Final residual = 4.8567e-08, No Iterations 10
time step continuity errors : sum local = 5.03004e-13, global = 4.76657e-13, cumulative = 1.88052e-09
ExecutionTime = 3.73357 s  ClockTime = 3 s

Courant Number mean: 4.54502e-05 max: 0.109141
Interface Courant Number mean: 2.57375e-06 max: 0.10515
Diffusion number maximum: 49.2942
deltaT = 9.78261e-06
Time = 0.000293478s

PIMPLE: Iteration 1
smoothSolver:  Solving for alpha.water, Initial residual = 1.94811e-06, Final residual = 1.68632e-09, No Iterations 1
Phase-1 volume fraction = 0.13505  Min(alpha.water) = -1.56383e-18  Max(alpha.water) = 1
MULES: Correcting alpha.water
Phase-1 volume fraction = 0.13505  Min(alpha.water) = -1.56383e-18  Max(alpha.water) = 1
DILUPBiCGStab:  Solving for T, Initial residual = 0.0298301, Final residual = 2.95207e-10, No Iterations 1
min/max(T) = 300 , 300
DILUPBiCGStab:  Solving for Ux, Initial residual = 0.00040135, Final residual = 5.09851e-08, No Iterations 1
DILUPBiCGStab:  Solving for Uy, Initial residual = 0.000201989, Final residual = 1.48878e-08, No Iterations 1
DILUPBiCGStab:  Solving for Uz, Initial residual = 1.898e-05, Final residual = 2.29258e-09, No Iterations 1
GAMG:  Solving for p_rgh, Initial residual = 0.0211004, Final residual = 0.000364542, No Iterations 1
time step continuity errors : sum local = 3.86632e-09, global = 1.56749e-12, cumulative = 1.88209e-09
[...]
time step continuity errors : sum local = 6.17851e-13, global = -5.80667e-13, cumulative = 1.88677e-09
PIMPLE: Iteration 2
smoothSolver:  Solving for alpha.water, Initial residual = 1.61499e-06, Final residual = 9.78845e-10, No Iterations 1
Phase-1 volume fraction = 0.13505  Min(alpha.water) = -7.35252e-19  Max(alpha.water) = 1
MULES: Correcting alpha.water
Phase-1 volume fraction = 0.13505  Min(alpha.water) = -7.35252e-19  Max(alpha.water) = 1
DILUPBiCGStab:  Solving for T, Initial residual = 0.0269602, Final residual = 2.80224e-10, No Iterations 1
min/max(T) = 300 , 300
DILUPBiCGStab:  Solving for Ux, Initial residual = 2.08766e-05, Final residual = 5.90792e-09, No Iterations 1
DILUPBiCGStab:  Solving for Uy, Initial residual = 2.6599e-05, Final residual = 9.98761e-09, No Iterations 1
DILUPBiCGStab:  Solving for Uz, Initial residual = 9.12604e-07, Final residual = 9.12604e-07, No Iterations 0
GAMG:  Solving for p_rgh, Initial residual = 0.00428177, Final residual = 0.000197822, No Iterations 1
time step continuity errors : sum local = 2.0399e-09, global = 3.55064e-12, cumulative = 1.89032e-09
GAMG:  Solving for p_rgh, Initial residual = 0.000326364, Final residual = 9.67183e-08, No Iterations 9
time step continuity errors : sum local = 9.94767e-13, global = 9.18697e-13, cumulative = 1.89124e-09
ExecutionTime = 4.97911 s  ClockTime = 3 s

Courant Number mean: 4.62673e-05 max: 0.112017
Interface Courant Number mean: 2.723e-06 max: 0.105132
Diffusion number maximum: 49.2734
deltaT = 9.78261e-06
Time = 0.000391304s

PIMPLE: Iteration 1
smoothSolver:  Solving for alpha.water, Initial residual = 1.93923e-06, Final residual = 1.6371e-09, No Iterations 1
Phase-1 volume fraction = 0.13505  Min(alpha.water) = -6.67419e-19  Max(alpha.water) = 1
MULES: Correcting alpha.water
Phase-1 volume fraction = 0.13505  Min(alpha.water) = -6.67419e-19  Max(alpha.water) = 1
DILUPBiCGStab:  Solving for T, Initial residual = 0.0227915, Final residual = 2.26948e-10, No Iterations 1
min/max(T) = 300 , 300
DILUPBiCGStab:  Solving for Ux, Initial residual = 0.000444514, Final residual = 5.586e-08, No Iterations 1
DILUPBiCGStab:  Solving for Uy, Initial residual = 0.000228892, Final residual = 2.84393e-08, No Iterations 1
DILUPBiCGStab:  Solving for Uz, Initial residual = 2.01645e-05, Final residual = 2.35561e-09, No Iterations 1
GAMG:  Solving for p_rgh, Initial residual = 0.0185396, Final residual = 0.000371122, No Iterations 1
time step continuity errors : sum local = 3.80404e-09, global = -2.13763e-12, cumulative = 1.8891e-09
GAMG:  Solving for p_rgh, Initial residual = 0.000763687, Final residual = 9.9935e-08, No Iterations 9
time step continuity errors : sum local = 1.02925e-12, global = -9.34486e-13, cumulative = 1.88817e-09
PIMPLE: Iteration 2
smoothSolver:  Solving for alpha.water, Initial residual = 1.58746e-06, Final residual = 9.18407e-10, No Iterations 1
Phase-1 volume fraction = 0.13505  Min(alpha.water) = -6.67606e-19  Max(alpha.water) = 1
MULES: Correcting alpha.water
Phase-1 volume fraction = 0.13505  Min(alpha.water) = -6.67606e-19  Max(alpha.water) = 1
DILUPBiCGStab:  Solving for T, Initial residual = 0.0256268, Final residual = 2.75615e-10, No Iterations 1
min/max(T) = 300 , 300
DILUPBiCGStab:  Solving for Ux, Initial residual = 1.94167e-05, Final residual = 6.90947e-09, No Iterations 1
DILUPBiCGStab:  Solving for Uy, Initial residual = 6.34601e-05, Final residual = 1.10351e-08, No Iterations 1
DILUPBiCGStab:  Solving for Uz, Initial residual = 9.35617e-07, Final residual = 9.35617e-07, No Iterations 0
GAMG:  Solving for p_rgh, Initial residual = 0.00459858, Final residual = 0.000212741, No Iterations 1
time step continuity errors : sum local = 2.20975e-09, global = 3.43169e-12, cumulative = 1.8916e-09
GAMG:  Solving for p_rgh, Initial residual = 0.000358808, Final residual = 4.74526e-08, No Iterations 10
time step continuity errors : sum local = 4.91849e-13, global = 4.65659e-13, cumulative = 1.89207e-09
ExecutionTime = 5.09877 s  ClockTime = 4 s

Courant Number mean: 4.62835e-05 max: 0.110915
Interface Courant Number mean: 2.58104e-06 max: 0.105414
Diffusion number maximum: 49.2631
deltaT = 9.78261e-06
Time = 0.000401087s

PIMPLE: Iteration 1
smoothSolver:  Solving for alpha.water, Initial residual = 1.94055e-06, Final residual = 1.64274e-09, No Iterations 1
Phase-1 volume fraction = 0.13505  Min(alpha.water) = -6.14152e-19  Max(alpha.water) = 1
MULES: Correcting alpha.water
Phase-1 volume fraction = 0.13505  Min(alpha.water) = -6.14152e-19  Max(alpha.water) = 1
DILUPBiCGStab:  Solving for T, Initial residual = 0.0221676, Final residual = 2.6784e-10, No Iterations 1
min/max(T) = 300 , 300
DILUPBiCGStab:  Solving for Ux, Initial residual = 0.0004449, Final residual = 5.7189e-08, No Iterations 1
DILUPBiCGStab:  Solving for Uy, Initial residual = 0.000232259, Final residual = 2.84406e-08, No Iterations 1
DILUPBiCGStab:  Solving for Uz, Initial residual = 2.02701e-05, Final residual = 2.32351e-09, No Iterations 1
GAMG:  Solving for p_rgh, Initial residual = 0.0183907, Final residual = 0.000358267, No Iterations 1
time step continuity errors : sum local = 3.75723e-09, global = -2.56322e-12, cumulative = 1.8895e-09
GAMG:  Solving for p_rgh, Initial residual = 0.000791404, Final residual = 9.46298e-08, No Iterations 9
time step continuity errors : sum local = 9.92354e-13, global = -8.99857e-13, cumulative = 1.8886e-09
PIMPLE: Iteration 2
smoothSolver:  Solving for alpha.water, Initial residual = 1.51701e-06, Final residual = 8.5998e-10, No Iterations 1
Phase-1 volume fraction = 0.13505  Min(alpha.water) = -6.14362e-19  Max(alpha.water) = 1
MULES: Correcting alpha.water
Phase-1 volume fraction = 0.13505  Min(alpha.water) = -6.14362e-19  Max(alpha.water) = 1
DILUPBiCGStab:  Solving for T, Initial residual = 0.0254352, Final residual = 3.24113e-10, No Iterations 1
min/max(T) = 300 , 300
DILUPBiCGStab:  Solving for Ux, Initial residual = 1.8873e-05, Final residual = 7.26675e-09, No Iterations 1
DILUPBiCGStab:  Solving for Uy, Initial residual = 5.27864e-05, Final residual = 7.19253e-09, No Iterations 1
DILUPBiCGStab:  Solving for Uz, Initial residual = 9.23347e-07, Final residual = 9.23347e-07, No Iterations 0
GAMG:  Solving for p_rgh, Initial residual = 0.00456887, Final residual = 0.000219472, No Iterations 1
time step continuity errors : sum local = 2.32426e-09, global = 3.23889e-12, cumulative = 1.89184e-09
GAMG:  Solving for p_rgh, Initial residual = 0.000380344, Final residual = 4.93743e-08, No Iterations 10
time step continuity errors : sum local = 5.21735e-13, global = 4.93736e-13, cumulative = 1.89234e-09
ExecutionTime = 5.219 s  ClockTime = 4 s

Courant Number mean: 4.62653e-05 max: 0.108905
Interface Courant Number mean: 2.57933e-06 max: 0.105497
Diffusion number maximum: 49.2536
deltaT = 9.78261e-06
Time = 0.00041087s

PIMPLE: Iteration 1
smoothSolver:  Solving for alpha.water, Initial residual = 1.94422e-06, Final residual = 1.64623e-09, No Iterations 1
Phase-1 volume fraction = 0.13505  Min(alpha.water) = -5.65363e-19  Max(alpha.water) = 1
MULES: Correcting alpha.water
Phase-1 volume fraction = 0.13505  Min(alpha.water) = -5.65363e-19  Max(alpha.water) = 1
DILUPBiCGStab:  Solving for T, Initial residual = 0.0215775, Final residual = 2.71802e-10, No Iterations 1
min/max(T) = 300 , 300
DILUPBiCGStab:  Solving for Ux, Initial residual = 0.000451209, Final residual = 5.92496e-08, No Iterations 1
DILUPBiCGStab:  Solving for Uy, Initial residual = 0.000244813, Final residual = 2.82467e-08, No Iterations 1
DILUPBiCGStab:  Solving for Uz, Initial residual = 2.01018e-05, Final residual = 2.26912e-09, No Iterations 1
GAMG:  Solving for p_rgh, Initial residual = 0.0174817, Final residual = 0.000350278, No Iterations 1
time step continuity errors : sum local = 3.6706e-09, global = -3.03807e-12, cumulative = 1.8893e-09
GAMG:  Solving for p_rgh, Initial residual = 0.000821123, Final residual = 7.40238e-08, No Iterations 10
time step continuity errors : sum local = 7.7301e-13, global = -7.29826e-13, cumulative = 1.88857e-09
PIMPLE: Iteration 2
smoothSolver:  Solving for alpha.water, Initial residual = 1.41831e-06, Final residual = 8.20465e-10, No Iterations 1
Phase-1 volume fraction = 0.13505  Min(alpha.water) = -5.65561e-19  Max(alpha.water) = 1
MULES: Correcting alpha.water
Phase-1 volume fraction = 0.13505  Min(alpha.water) = -5.65561e-19  Max(alpha.water) = 1
DILUPBiCGStab:  Solving for T, Initial residual = 0.0246732, Final residual = 2.99802e-10, No Iterations 1
min/max(T) = 300 , 300
DILUPBiCGStab:  Solving for Ux, Initial residual = 1.8005e-05, Final residual = 7.63985e-09, No Iterations 1
DILUPBiCGStab:  Solving for Uy, Initial residual = 3.8632e-05, Final residual = 5.23132e-09, No Iterations 1
DILUPBiCGStab:  Solving for Uz, Initial residual = 7.808e-07, Final residual = 7.808e-07, No Iterations 0
GAMG:  Solving for p_rgh, Initial residual = 0.00441224, Final residual = 0.000221327, No Iterations 1
time step continuity errors : sum local = 2.34571e-09, global = 3.33956e-12, cumulative = 1.89191e-09
GAMG:  Solving for p_rgh, Initial residual = 0.000392962, Final residual = 4.74764e-08, No Iterations 10
time step continuity errors : sum local = 5.01344e-13, global = 4.74253e-13, cumulative = 1.89238e-09
ExecutionTime = 5.34543 s  ClockTime = 4 s

Courant Number mean: 4.62689e-05 max: 0.108323
Interface Courant Number mean: 2.74482e-06 max: 0.105467
Diffusion number maximum: 49.2503
deltaT = 9.78261e-06
Time = 0.000420652s

PIMPLE: Iteration 1
smoothSolver:  Solving for alpha.water, Initial residual = 1.94458e-06, Final residual = 1.65058e-09, No Iterations 1
Phase-1 volume fraction = 0.13505  Min(alpha.water) = -5.20637e-19  Max(alpha.water) = 1
MULES: Correcting alpha.water
Phase-1 volume fraction = 0.13505  Min(alpha.water) = -5.20637e-19  Max(alpha.water) = 1
DILUPBiCGStab:  Solving for T, Initial residual = 0.0201318, Final residual = 2.21203e-10, No Iterations 1
min/max(T) = 300 , 300
DILUPBiCGStab:  Solving for Ux, Initial residual = 0.000452281, Final residual = 6.08719e-08, No Iterations 1
DILUPBiCGStab:  Solving for Uy, Initial residual = 0.000267744, Final residual = 2.84008e-08, No Iterations 1
DILUPBiCGStab:  Solving for Uz, Initial residual = 2.01821e-05, Final residual = 2.2071e-09, No Iterations 1
GAMG:  Solving for p_rgh, Initial residual = 0.017501, Final residual = 0.000396526, No Iterations 1
time step continuity errors : sum local = 4.15905e-09, global = -2.86362e-12, cumulative = 1.88952e-09
GAMG:  Solving for p_rgh, Initial residual = 0.000887175, Final residual = 9.30489e-08, No Iterations 10
time step continuity errors : sum local = 9.73174e-13, global = -9.20544e-13, cumulative = 1.8886e-09
PIMPLE: Iteration 2
smoothSolver:  Solving for alpha.water, Initial residual = 1.29858e-06, Final residual = 8.03283e-10, No Iterations 1
Phase-1 volume fraction = 0.13505  Min(alpha.water) = -5.20811e-19  Max(alpha.water) = 1
MULES: Correcting alpha.water
Phase-1 volume fraction = 0.13505  Min(alpha.water) = -5.20811e-19  Max(alpha.water) = 1
DILUPBiCGStab:  Solving for T, Initial residual = 0.0237948, Final residual = 2.89063e-10, No Iterations 1
min/max(T) = 300 , 300
DILUPBiCGStab:  Solving for Ux, Initial residual = 1.83598e-05, Final residual = 7.4991e-09, No Iterations 1
DILUPBiCGStab:  Solving for Uy, Initial residual = 4.08981e-05, Final residual = 4.84911e-09, No Iterations 1
DILUPBiCGStab:  Solving for Uz, Initial residual = 7.79864e-07, Final residual = 7.79864e-07, No Iterations 0
GAMG:  Solving for p_rgh, Initial residual = 0.00423127, Final residual = 0.000231805, No Iterations 1
time step continuity errors : sum local = 2.46722e-09, global = 3.53744e-12, cumulative = 1.89214e-09
GAMG:  Solving for p_rgh, Initial residual = 0.000415606, Final residual = 4.89415e-08, No Iterations 10
time step continuity errors : sum local = 5.18332e-13, global = 4.90457e-13, cumulative = 1.89263e-09
ExecutionTime = 5.47196 s  ClockTime = 4 s

Courant Number mean: 4.63291e-05 max: 0.110816
Interface Courant Number mean: 2.74377e-06 max: 0.105369
Diffusion number maximum: 49.2474
deltaT = 9.78261e-06
Time = 0.000430435s

PIMPLE: Iteration 1
smoothSolver:  Solving for alpha.water, Initial residual = 1.94338e-06, Final residual = 1.65365e-09, No Iterations 1
Phase-1 volume fraction = 0.13505  Min(alpha.water) = -4.79604e-19  Max(alpha.water) = 1
MULES: Correcting alpha.water
Phase-1 volume fraction = 0.13505  Min(alpha.water) = -4.79604e-19  Max(alpha.water) = 1
DILUPBiCGStab:  Solving for T, Initial residual = 0.0201876, Final residual = 3.03006e-10, No Iterations 1
min/max(T) = 300 , 300
DILUPBiCGStab:  Solving for Ux, Initial residual = 0.000454183, Final residual = 6.43189e-08, No Iterations 1
DILUPBiCGStab:  Solving for Uy, Initial residual = 0.0002683, Final residual = 2.50719e-08, No Iterations 1
DILUPBiCGStab:  Solving for Uz, Initial residual = 2.04686e-05, Final residual = 2.48788e-09, No Iterations 1
GAMG:  Solving for p_rgh, Initial residual = 0.0167335, Final residual = 0.000359766, No Iterations 1
time step continuity errors : sum local = 3.74438e-09, global = -3.57858e-12, cumulative = 1.88905e-09
GAMG:  Solving for p_rgh, Initial residual = 0.000809669, Final residual = 7.12779e-08, No Iterations 10
time step continuity errors : sum local = 7.42941e-13, global = -7.0126e-13, cumulative = 1.88835e-09
PIMPLE: Iteration 2
smoothSolver:  Solving for alpha.water, Initial residual = 1.2012e-06, Final residual = 8.61837e-10, No Iterations 1
Phase-1 volume fraction = 0.13505  Min(alpha.water) = -4.79766e-19  Max(alpha.water) = 1
MULES: Correcting alpha.water
Phase-1 volume fraction = 0.13505  Min(alpha.water) = -4.79766e-19  Max(alpha.water) = 1
DILUPBiCGStab:  Solving for T, Initial residual = 0.0235109, Final residual = 2.89582e-10, No Iterations 1
min/max(T) = 300 , 300
DILUPBiCGStab:  Solving for Ux, Initial residual = 1.87761e-05, Final residual = 6.49085e-09, No Iterations 1
DILUPBiCGStab:  Solving for Uy, Initial residual = 5.81329e-05, Final residual = 6.7084e-09, No Iterations 1
DILUPBiCGStab:  Solving for Uz, Initial residual = 7.84588e-07, Final residual = 7.84588e-07, No Iterations 0
GAMG:  Solving for p_rgh, Initial residual = 0.00405227, Final residual = 0.0002337, No Iterations 1
time step continuity errors : sum local = 2.47737e-09, global = 3.87777e-12, cumulative = 1.89222e-09
GAMG:  Solving for p_rgh, Initial residual = 0.00043542, Final residual = 4.8836e-08, No Iterations 10
time step continuity errors : sum local = 5.15119e-13, global = 4.87509e-13, cumulative = 1.89271e-09
ExecutionTime = 5.59724 s  ClockTime = 4 s

Courant Number mean: 4.6411e-05 max: 0.113437
Interface Courant Number mean: 2.97591e-06 max: 0.105215
Diffusion number maximum: 49.2449
deltaT = 9.78261e-06
Time = 0.000440217s

PIMPLE: Iteration 1
smoothSolver:  Solving for alpha.water, Initial residual = 1.94131e-06, Final residual = 1.65954e-09, No Iterations 1
Phase-1 volume fraction = 0.13505  Min(alpha.water) = -4.41959e-19  Max(alpha.water) = 1
MULES: Correcting alpha.water
Phase-1 volume fraction = 0.13505  Min(alpha.water) = -4.41959e-19  Max(alpha.water) = 1
DILUPBiCGStab:  Solving for T, Initial residual = 0.0198878, Final residual = 2.42533e-10, No Iterations 1
min/max(T) = 300 , 300
DILUPBiCGStab:  Solving for Ux, Initial residual = 0.00046408, Final residual = 6.45119e-08, No Iterations 1
DILUPBiCGStab:  Solving for Uy, Initial residual = 0.000288128, Final residual = 3.16459e-08, No Iterations 1
DILUPBiCGStab:  Solving for Uz, Initial residual = 2.08832e-05, Final residual = 2.65612e-09, No Iterations 1
GAMG:  Solving for p_rgh, Initial residual = 0.0160236, Final residual = 0.000301751, No Iterations 1
time step continuity errors : sum local = 3.12333e-09, global = -2.56706e-12, cumulative = 1.89015e-09
GAMG:  Solving for p_rgh, Initial residual = 0.000765853, Final residual = 6.14336e-08, No Iterations 10
time step continuity errors : sum local = 6.33612e-13, global = -5.97119e-13, cumulative = 1.88955e-09
PIMPLE: Iteration 2
smoothSolver:  Solving for alpha.water, Initial residual = 1.24213e-06, Final residual = 9.92979e-10, No Iterations 1
Phase-1 volume fraction = 0.13505  Min(alpha.water) = -4.42123e-19  Max(alpha.water) = 1
MULES: Correcting alpha.water
Phase-1 volume fraction = 0.13505  Min(alpha.water) = -4.42123e-19  Max(alpha.water) = 1
DILUPBiCGStab:  Solving for T, Initial residual = 0.0235479, Final residual = 3.06932e-10, No Iterations 1
min/max(T) = 300 , 300
DILUPBiCGStab:  Solving for Ux, Initial residual = 2.00722e-05, Final residual = 6.0254e-09, No Iterations 1
DILUPBiCGStab:  Solving for Uy, Initial residual = 5.5673e-05, Final residual = 5.51722e-09, No Iterations 1
DILUPBiCGStab:  Solving for Uz, Initial residual = 8.33344e-07, Final residual = 8.33344e-07, No Iterations 0
GAMG:  Solving for p_rgh, Initial residual = 0.00385051, Final residual = 0.000208964, No Iterations 1
time step continuity errors : sum local = 2.18804e-09, global = 2.69351e-12, cumulative = 1.89224e-09
GAMG:  Solving for p_rgh, Initial residual = 0.000397936, Final residual = 9.59522e-08, No Iterations 9
time step continuity errors : sum local = 1.00085e-12, global = 9.22752e-13, cumulative = 1.89316e-09
ExecutionTime = 5.72298 s  ClockTime = 4 s

Courant Number mean: 4.65173e-05 max: 0.115419
Interface Courant Number mean: 2.87342e-06 max: 0.104937
Diffusion number maximum: 49.2428
deltaT = 9.78261e-06
Time = 0.00045s

PIMPLE: Iteration 1
smoothSolver:  Solving for alpha.water, Initial residual = 1.93828e-06, Final residual = 1.6669e-09, No Iterations 1
Phase-1 volume fraction = 0.13505  Min(alpha.water) = -4.07445e-19  Max(alpha.water) = 1
MULES: Correcting alpha.water
Phase-1 volume fraction = 0.13505  Min(alpha.water) = -1.11215e-18  Max(alpha.water) = 1
DILUPBiCGStab:  Solving for T, Initial residual = 0.0203175, Final residual = 2.72625e-10, No Iterations 1
min/max(T) = 300 , 300
DILUPBiCGStab:  Solving for Ux, Initial residual = 0.000477501, Final residual = 6.62098e-08, No Iterations 1
DILUPBiCGStab:  Solving for Uy, Initial residual = 0.00030104, Final residual = 3.41245e-08, No Iterations 1
DILUPBiCGStab:  Solving for Uz, Initial residual = 2.12307e-05, Final residual = 2.74045e-09, No Iterations 1
GAMG:  Solving for p_rgh, Initial residual = 0.0157966, Final residual = 0.000238238, No Iterations 1
time step continuity errors : sum local = 2.44777e-09, global = -4.1774e-13, cumulative = 1.89275e-09
GAMG:  Solving for p_rgh, Initial residual = 0.000714807, Final residual = 9.33701e-08, No Iterations 9
time step continuity errors : sum local = 9.56865e-13, global = -8.69532e-13, cumulative = 1.89188e-09
PIMPLE: Iteration 2
smoothSolver:  Solving for alpha.water, Initial residual = 1.34989e-06, Final residual = 1.0925e-09, No Iterations 1
Phase-1 volume fraction = 0.13505  Min(alpha.water) = -4.07633e-19  Max(alpha.water) = 1
MULES: Correcting alpha.water
Phase-1 volume fraction = 0.13505  Min(alpha.water) = -1.11215e-18  Max(alpha.water) = 1
DILUPBiCGStab:  Solving for T, Initial residual = 0.0227346, Final residual = 3.03425e-10, No Iterations 1
min/max(T) = 300 , 300
DILUPBiCGStab:  Solving for Ux, Initial residual = 2.3749e-05, Final residual = 5.75265e-09, No Iterations 1
DILUPBiCGStab:  Solving for Uy, Initial residual = 5.78725e-05, Final residual = 5.83803e-09, No Iterations 1
DILUPBiCGStab:  Solving for Uz, Initial residual = 9.94209e-07, Final residual = 9.94209e-07, No Iterations 0
GAMG:  Solving for p_rgh, Initial residual = 0.00396681, Final residual = 0.000198008, No Iterations 1
time step continuity errors : sum local = 2.05443e-09, global = 2.32174e-12, cumulative = 1.8942e-09
GAMG:  Solving for p_rgh, Initial residual = 0.000371256, Final residual = 9.89575e-08, No Iterations 9
time step continuity errors : sum local = 1.02278e-12, global = 9.44554e-13, cumulative = 1.89514e-09
ExecutionTime = 5.89022 s  ClockTime = 4 s

End

